# CIF file generated by openbabel 2.4.90, see http://openbabel.sf.net
data_I
_chemical_name_common ''
_cell_length_a 14.76
_cell_length_b 14.768
_cell_length_c 14.7681
_cell_angle_alpha 119.862
_cell_angle_beta 119.897
_cell_angle_gamma 90.143
_space_group_name_H-M_alt 'P 1'
_space_group_name_Hall 'P 1'
loop_
    _symmetry_equiv_pos_as_xyz
    x,y,z
loop_
    _atom_site_label
    _atom_site_type_symbol
    _atom_site_fract_x
    _atom_site_fract_y
    _atom_site_fract_z
    _atom_site_occupancy
    H0      H    0.34097   0.26688   0.68070   1.000
    Zr1     Zr   0.78104   0.10166   0.34449   1.000
    H2      H    0.43608   0.37272   0.52360   1.000
    H3      H    0.54662   0.75566   0.82246   1.000
    H4      H    0.53332   0.04975   0.77040   1.000
    H5      H    0.37569   0.55238   0.25412   1.000
    H6      H    0.25993   0.45533   0.20359   1.000
    H7      H    0.35366   0.40738   0.16695   1.000
    H8      H    0.45665   0.71919   0.85532   1.000
    H9      H    0.60218   0.78719   0.97513   1.000
    H10     H    0.47489   0.39974   0.98370   1.000
    H11     H    0.27652   0.54260   0.66236   1.000
    H12     H    0.23477   0.44723   0.50217   1.000
    H13     H    0.21223   0.39784   0.57781   1.000
    H14     H    0.76180   0.34315   0.92076   1.000
    H15     H    0.59747   0.45716   0.72217   1.000
    H16     H    0.71533   0.55037   0.77158   1.000
    H17     H    0.62421   0.60297   0.81057   1.000
    H18     H    0.81193   0.77352   0.16717   1.000
    H19     H    0.53659   0.86826   0.25388   1.000
    H20     H    0.44321   0.93554   0.20252   1.000
    H21     H    0.39062   0.80602   0.16476   1.000
    H22     H    0.87244   0.71485   0.25466   1.000
    H23     H    0.94155   0.75834   0.20548   1.000
    H24     H    0.42924   0.23623   0.12746   1.000
    H25     H    0.09268   0.16075   0.52484   1.000
    H26     H    0.53947   0.63720   0.45325   1.000
    H27     H    0.63981   0.44693   0.91460   1.000
    H28     H    0.80582   0.11424   0.26326   1.000
    H29     H    0.70134   0.54414   0.85277   1.000
    H30     H    0.79357   0.08882   0.33134   1.000
    H31     H    0.51021   0.61414   0.04127   1.000
    H32     H    0.36649   0.63882   0.30006   1.000
    H33     H    0.36064   0.51435   0.73487   1.000
    H34     H    0.34309   0.53570   0.95844   1.000
    H35     H    0.19426   0.13396   0.64376   1.000
    H36     H    0.35552   0.54379   0.27916   1.000
    H37     H    0.52034   0.22184   0.70812   1.000
    H38     H    0.22576   0.21181   0.92888   1.000
    H39     H    0.96958   0.84671   0.28620   1.000
    H40     H    0.24476   0.38566   0.63649   1.000
    H41     H    0.44016   0.75706   0.02175   1.000
    H42     H    0.90933   0.75059   0.52635   1.000
    H43     H    0.27597   0.84649   0.24692   1.000
    H44     H    0.67349   0.52319   0.39247   1.000
    H45     H    0.56425   0.54648   0.18329   1.000
    H46     H    0.39714   0.55328   0.80077   1.000
    H47     H    0.65663   0.40164   0.73561   1.000
    H48     H    0.46265   0.77625   0.80412   1.000
    H49     H    0.81029   0.17491   0.62111   1.000
    H50     H    0.53866   0.40160   0.62274   1.000
    H51     H    0.33544   0.47915   0.42080   1.000
    H52     H    0.42844   0.89268   0.23395   1.000
    H53     H    0.30739   0.39058   0.76176   1.000
    H54     H    0.60273   0.26813   0.90436   1.000
    H55     H    0.04568   0.38999   0.78795   1.000
    H56     H    0.68318   0.36139   0.68933   1.000
    C57     C    0.89010   0.77821   0.24186   1.000
    C58     C    0.62747   0.53363   0.73530   1.000
    C59     C    0.58500   0.59683   0.58709   1.000
    C60     C    0.39090   0.41251   0.38932   1.000
    C61     C    0.45987   0.88479   0.23990   1.000
    C62     C    0.51549   0.57756   0.46674   1.000
    C63     C    0.41794   0.48682   0.36563   1.000
    C64     C    0.46005   0.43222   0.50997   1.000
    C65     C    0.55779   0.52279   0.61105   1.000
    C66     C    0.21217   0.46734   0.56879   1.000
    C67     C    0.52978   0.78250   0.89483   1.000
    C68     C    0.34803   0.47522   0.24107   1.000
    C69     C    0.67271   0.49806   0.65408   1.000
    C70     C    0.13434   0.80370   0.37728   1.000
    C71     C    0.39876   0.84787   0.38785   1.000
    C72     C    0.13204   0.87957   0.61815   1.000
    C73     C    0.59198   0.34936   0.20495   1.000
    C74     C    0.41708   0.11588   0.20135   1.000
    C75     C    0.70112   0.14497   0.31405   1.000
    C76     C    0.23326   0.61414   0.41004   1.000
    C77     C    0.30013   0.32898   0.95222   1.000
    C78     C    0.75416   0.37181   0.65387   1.000
    C79     C    0.46716   0.29052   0.22799   1.000
    C80     C    0.77475   0.26701   0.75105   1.000
    C81     C    0.71581   0.32145   0.64828   1.000
    C82     C    0.37867   0.69665   0.89036   1.000
    C83     C    0.60053   0.55277   0.10316   1.000
    C84     C    0.10443   0.63317   0.40191   1.000
    C85     C    0.34675   0.65709   0.71008   1.000
    C86     C    0.84878   0.11833   0.68229   1.000
    C87     C    0.30641   0.51773   0.59774   1.000
    C88     C    0.82589   0.24912   0.54511   1.000
    C89     C    0.95036   0.74527   0.17388   1.000
    C90     C    0.30421   0.64449   0.98977   1.000
    C91     C    0.38875   0.48644   0.16751   1.000
    C92     C    0.19183   0.93479   0.71472   1.000
    C93     C    0.63242   0.75594   0.07562   1.000
    C94     C    0.08814   0.20548   0.55205   1.000
    O95     O    0.10460   0.78397   0.36985   1.000
    O96     O    0.92092   0.37636   0.74276   1.000
    O97     O    0.60702   0.58858   0.03823   1.000
    O98     O    0.57751   0.64228   0.53381   1.000
    O99     O    0.66720   0.37517   0.83779   1.000
    O100    O    0.67448   0.29834   0.86785   1.000
    O101    O    0.38025   0.42721   0.84448   1.000
    O102    O    0.40878   0.61461   0.93255   1.000
    O103    O    0.75428   0.19800   0.60069   1.000
    O104    O    0.89527   0.54553   0.72633   1.000
    O105    O    0.45545   0.44576   0.46953   1.000
    O106    O    0.38992   0.49234   0.79278   1.000
    O107    O    0.76390   0.33511   0.54463   1.000
    O108    O    0.76944   0.05780   0.33739   1.000
    O109    O    0.45849   0.29858   0.30054   1.000
    O110    O    0.80852   0.21210   0.74468   1.000
    O111    O    0.84189   0.85417   0.25217   1.000
loop_
    _geom_bond_atom_site_label_1
    _geom_bond_atom_site_label_2
    _geom_bond_distance
    _geom_bond_site_symmetry_2
    _ccdc_geom_bond_type
    H41    C82       1.37886  1_554   S
    O97    C83       1.34332      .   S
    H24    C79       1.06971      .   S
    H21    C61       1.09874      .   S
    H18    O111      1.07002      .   S
    C89    H23       0.49291      .   S
    H20    C61       1.09751      .   S
    H6     C68       1.09647      .   S
    C79    O109      1.09007      .   S
    H52    C61       0.45422      .   S
    C61    H19       1.09682      .   S
    C68    H36       0.85099      .   S
    C57    O111      1.31517      .   S
    C57    H22       1.09693      .   S
    C57    H39       1.18195      .   S
    H28    Zr1       1.50537      .   S
    C75    Zr1       1.32819      .   S
    O108   Zr1       0.61148      .   S
    C63    C62       1.39750      .   S
    O95    C70       0.45739      .   S
    C60    H51       1.33519      .   S
    C60    O105      0.91948      .   S
    C84    C76       1.87565      .   S
    H26    O98       0.99069      .   S
    C62    O98       0.93893      .   S
    O105   C64       0.69265      .   S
    H12    C66       1.09733      .   S
    C64    H2        1.08783      .   S
    C64    C65       1.39780      .   S
    H25    C94       0.60426      .   S
    O107   C88       1.56785      .   S
    O107   C78       1.50928      .   S
    C66    H13       1.09874      .   S
    C66    C87       1.32530      .   S
    C66    H11       1.09720      .   S
    C87    C85       1.71811      .   S
    O103   H49       0.86361      .   S
    C72    C92       1.03024      .   S
    C81    C78       0.87778      .   S
    C81    H56       0.94009      .   S
    C81    C80       1.89971      .   S
    C86    O110      1.54887      .   S
    H15    C58       1.09675      .   S
    C58    H16       1.09716      .   S
    C58    H17       1.09845      .   S
    C58    H29       1.43804      .   S
    O110   C80       0.94216      .   S
    H53    O101      0.98528      .   S
    O106   H46       0.84646      .   S
    H48    C67       1.15666      .   S
    H3     C67       1.09755      .   S
    O99    O100      1.39661      .   S
    O99    H27       1.35479      .   S
    H8     C67       1.09707      .   S
    O100   H14       1.08929      .   S
    C82    O102      1.59124      .   S
    C67    H9        1.09890      .   S
    O108   H30       0.64527      .   S
    O108   C75       1.70154      .   S
