# CIF file generated by openbabel 2.4.90, see http://openbabel.sf.net
data_I
_chemical_name_common ''
_cell_length_a 71.5169
_cell_length_b 71.4927
_cell_length_c 71.6087
_cell_angle_alpha 89.8315
_cell_angle_beta 90.1248
_cell_angle_gamma 89.8689
_space_group_name_H-M_alt 'P 1'
_space_group_name_Hall 'P 1'
loop_
    _symmetry_equiv_pos_as_xyz
    x,y,z
loop_
    _atom_site_label
    _atom_site_type_symbol
    _atom_site_fract_x
    _atom_site_fract_y
    _atom_site_fract_z
    _atom_site_occupancy
    C0      C    0.06292   0.03956   0.11624   1.000
    C1      C    0.07079   0.04731   0.13242   1.000
    H2      H    0.08304   0.04088   0.13866   1.000
    C3      C    0.93352   0.95967   0.11658   1.000
    C4      C    0.92587   0.95173   0.13290   1.000
    H5      H    0.91333   0.95764   0.13897   1.000
    C6      C    0.04035   0.11732   0.06298   1.000
    C7      C    0.04855   0.13355   0.07045   1.000
    H8      H    0.04272   0.13989   0.08287   1.000
    C9      C    0.95720   0.88155   0.06377   1.000
    C10     C    0.94908   0.86522   0.07113   1.000
    H11     H    0.95474   0.85897   0.08374   1.000
    C12     C    0.11773   0.06238   0.03978   1.000
    C13     C    0.13447   0.06923   0.04751   1.000
    H14     H    0.14112   0.08142   0.04146   1.000
    C15     C    0.88152   0.93627   0.03822   1.000
    C16     C    0.86533   0.92843   0.04597   1.000
    H17     H    0.85924   0.91607   0.03972   1.000
    C18     C    0.95831   0.06543   0.11614   1.000
    C19     C    0.95043   0.07296   0.13248   1.000
    H20     H    0.95624   0.08558   0.13847   1.000
    C21     C    0.03837   0.93398   0.11729   1.000
    C22     C    0.04633   0.92635   0.13361   1.000
    H23     H    0.04057   0.91369   0.13962   1.000
    C24     C    0.11610   0.95785   0.06440   1.000
    C25     C    0.13315   0.95094   0.07138   1.000
    H26     H    0.13953   0.95746   0.08345   1.000
    C27     C    0.88198   0.04151   0.06198   1.000
    C28     C    0.86568   0.04982   0.06923   1.000
    H29     H    0.85939   0.04425   0.08181   1.000
    C30     C    0.93510   0.11865   0.03781   1.000
    C31     C    0.92714   0.13482   0.04559   1.000
    H32     H    0.91485   0.14099   0.03917   1.000
    C33     C    0.06251   0.87939   0.04120   1.000
    C34     C    0.06958   0.86275   0.04906   1.000
    H35     H    0.08188   0.85623   0.04311   1.000
    C36     C    0.93428   0.04109   0.11610   1.000
    C37     C    0.92669   0.04879   0.13244   1.000
    H38     H    0.91447   0.04244   0.13869   1.000
    C39     C    0.06241   0.95825   0.11717   1.000
    C40     C    0.07010   0.95044   0.13348   1.000
    H41     H    0.08243   0.95666   0.13968   1.000
    C42     C    0.03793   0.87987   0.06487   1.000
    C43     C    0.04512   0.86320   0.07245   1.000
    H44     H    0.03881   0.85728   0.08487   1.000
    C45     C    0.95884   0.11867   0.06249   1.000
    C46     C    0.95062   0.13485   0.07007   1.000
    H47     H    0.95618   0.14074   0.08285   1.000
    C48     C    0.88268   0.06538   0.03738   1.000
    C49     C    0.86643   0.07339   0.04486   1.000
    H50     H    0.86045   0.08576   0.03840   1.000
    C51     C    0.11604   0.93311   0.04091   1.000
    C52     C    0.13304   0.92634   0.04817   1.000
    H53     H    0.13955   0.91413   0.04203   1.000
    C54     C    0.95758   0.93527   0.11646   1.000
    C55     C    0.94980   0.92767   0.13274   1.000
    H56     H    0.95598   0.91528   0.13896   1.000
    C57     C    0.03923   0.06432   0.11618   1.000
    C58     C    0.04739   0.07186   0.13238   1.000
    H59     H    0.04186   0.08465   0.13830   1.000
    C60     C    0.88121   0.96022   0.06257   1.000
    C61     C    0.86498   0.95208   0.07012   1.000
    H62     H    0.85889   0.95770   0.08276   1.000
    C63     C    0.11701   0.03802   0.06381   1.000
    C64     C    0.13384   0.04493   0.07116   1.000
    H65     H    0.13981   0.03859   0.08359   1.000
    C66     C    0.93337   0.88212   0.03922   1.000
    C67     C    0.92544   0.86586   0.04682   1.000
    H68     H    0.91312   0.85984   0.04042   1.000
    C69     C    0.06480   0.11637   0.03910   1.000
    C70     C    0.07270   0.13257   0.04678   1.000
    H71     H    0.08522   0.13845   0.04064   1.000
    C72     C    0.04704   0.04806   0.10830   1.000
    H73     H    0.04111   0.04237   0.09560   1.000
    C74     C    0.06330   0.06354   0.14046   1.000
    C75     C    0.94947   0.95137   0.10858   1.000
    H76     H    0.95524   0.95710   0.09581   1.000
    C77     C    0.93385   0.93559   0.14093   1.000
    C78     C    0.04853   0.10893   0.04720   1.000
    H79     H    0.04257   0.09622   0.04157   1.000
    C80     C    0.06483   0.14115   0.06253   1.000
    C81     C    0.94934   0.88976   0.04770   1.000
    H82     H    0.95531   0.90251   0.04211   1.000
    C83     C    0.93311   0.85738   0.06281   1.000
    C84     C    0.10921   0.04668   0.04797   1.000
    H85     H    0.09610   0.04156   0.04239   1.000
    C86     C    0.14261   0.06056   0.06319   1.000
    C87     C    0.88929   0.95226   0.04652   1.000
    H88     H    0.90200   0.95816   0.04083   1.000
    C89     C    0.85712   0.93603   0.06202   1.000
    C90     C    0.95020   0.04941   0.10817   1.000
    H91     H    0.95593   0.04374   0.09539   1.000
    C92     C    0.93453   0.06482   0.14065   1.000
    C93     C    0.04643   0.95003   0.10928   1.000
    H94     H    0.04064   0.95577   0.09650   1.000
    C95     C    0.06232   0.93439   0.14167   1.000
    C96     C    0.10777   0.94896   0.04903   1.000
    H97     H    0.09450   0.95406   0.04374   1.000
    C98     C    0.14168   0.93518   0.06339   1.000
    C99     C    0.89029   0.04934   0.04595   1.000
    H100    H    0.90305   0.04330   0.04047   1.000
    C101    C    0.85796   0.06588   0.06085   1.000
    C102    C    0.95105   0.11080   0.04627   1.000
    H103    H    0.95705   0.09813   0.04055   1.000
    C104    C    0.93467   0.14294   0.06180   1.000
    C105    C    0.04659   0.88771   0.04912   1.000
    H106    H    0.04127   0.90071   0.04339   1.000
    C107    C    0.06096   0.85455   0.06470   1.000
    C108    C    0.06445   0.95754   0.88184   1.000
    C109    C    0.07143   0.95023   0.86502   1.000
    H110    H    0.08352   0.95657   0.85851   1.000
    C111    C    0.93724   0.04025   0.87944   1.000
    C112    C    0.93016   0.04749   0.86260   1.000
    H113    H    0.91792   0.04121   0.85630   1.000
    C114    C    0.96124   0.11835   0.93319   1.000
    C115    C    0.95417   0.13522   0.92595   1.000
    H116    H    0.96053   0.14138   0.91368   1.000
    C117    C    0.03916   0.87962   0.93607   1.000
    C118    C    0.04626   0.86272   0.92909   1.000
    H119    H    0.04015   0.85661   0.91667   1.000
    C120    C    0.11607   0.93349   0.96116   1.000
    C121    C    0.13317   0.92659   0.95447   1.000
    H122    H    0.13938   0.91428   0.96083   1.000
    C123    C    0.88303   0.06483   0.95651   1.000
    C124    C    0.86603   0.07159   0.94919   1.000
    H125    H    0.85936   0.08364   0.95547   1.000
    C126    C    0.04132   0.06319   0.88088   1.000
    C127    C    0.04889   0.07011   0.86417   1.000
    H128    H    0.04277   0.08237   0.85763   1.000
    C129    C    0.96006   0.93421   0.88128   1.000
    C130    C    0.95237   0.92641   0.86505   1.000
    H131    H    0.95841   0.91380   0.85924   1.000
    C132    C    0.11821   0.03806   0.93504   1.000
    C133    C    0.13504   0.04521   0.92789   1.000
    H134    H    0.14120   0.03896   0.91558   1.000
    C135    C    0.88314   0.96017   0.93285   1.000
    C136    C    0.86675   0.95274   0.92507   1.000
    H137    H    0.86077   0.95907   0.91265   1.000
    C138    C    0.06586   0.11657   0.95826   1.000
    C139    C    0.07370   0.13290   0.95069   1.000
    H140    H    0.08597   0.13897   0.95715   1.000
    C141    C    0.93465   0.88127   0.95879   1.000
    C142    C    0.92746   0.86442   0.95177   1.000
    H143    H    0.91502   0.85841   0.95794   1.000
    C144    C    0.93638   0.95891   0.88018   1.000
    C145    C    0.92885   0.95084   0.86392   1.000
    H146    H    0.91646   0.95682   0.85752   1.000
    C147    C    0.06502   0.03846   0.88119   1.000
    C148    C    0.07240   0.04563   0.86446   1.000
    H149    H    0.08473   0.03926   0.85842   1.000
    C150    C    0.95888   0.88068   0.93477   1.000
    C151    C    0.95140   0.86389   0.92786   1.000
    H152    H    0.95772   0.85725   0.91584   1.000
    C153    C    0.04201   0.11710   0.93371   1.000
    C154    C    0.05011   0.13344   0.92634   1.000
    H155    H    0.04445   0.13963   0.91370   1.000
    C156    C    0.88229   0.93604   0.95711   1.000
    C157    C    0.86589   0.92879   0.94905   1.000
    H158    H    0.85953   0.91634   0.95487   1.000
    C159    C    0.11837   0.06241   0.95897   1.000
    C160    C    0.13514   0.06943   0.95151   1.000
    H161    H    0.14161   0.08163   0.95770   1.000
    C162    C    0.04025   0.93343   0.88198   1.000
    C163    C    0.04736   0.92641   0.86512   1.000
    H164    H    0.04113   0.91410   0.85892   1.000
    C165    C    0.96100   0.06479   0.87967   1.000
    C166    C    0.95362   0.07192   0.86285   1.000
    H167    H    0.95979   0.08421   0.85651   1.000
    C168    C    0.88335   0.04048   0.93257   1.000
    C169    C    0.86633   0.04740   0.92554   1.000
    H170    H    0.86014   0.04105   0.91329   1.000
    C171    C    0.11652   0.95763   0.93687   1.000
    C172    C    0.13359   0.95044   0.93039   1.000
    H173    H    0.14035   0.95680   0.91844   1.000
    C174    C    0.06317   0.87922   0.96042   1.000
    C175    C    0.07022   0.86239   0.95310   1.000
    H176    H    0.08233   0.85582   0.95945   1.000
    C177    C    0.93665   0.11851   0.95688   1.000
    C178    C    0.92970   0.13534   0.94933   1.000
    H179    H    0.91744   0.14184   0.95539   1.000
    C180    C    0.04876   0.94912   0.89011   1.000
    H181    H    0.04351   0.95445   0.90324   1.000
    C182    C    0.06295   0.93468   0.85656   1.000
    C183    C    0.95279   0.04886   0.88774   1.000
    H184    H    0.95815   0.04349   0.90086   1.000
    C185    C    0.93820   0.06332   0.85421   1.000
    C186    C    0.95252   0.11024   0.94880   1.000
    H187    H    0.95774   0.09709   0.95429   1.000
    C188    C    0.93838   0.14378   0.93387   1.000
    C189    C    0.04754   0.88762   0.95188   1.000
    H190    H    0.04228   0.90079   0.95718   1.000
    C191    C    0.06180   0.85405   0.93746   1.000
    C192    C    0.10792   0.94915   0.95238   1.000
    H193    H    0.09457   0.95437   0.95725   1.000
    C194    C    0.14195   0.93490   0.93906   1.000
    C195    C    0.89148   0.04917   0.94817   1.000
    H196    H    0.90474   0.04407   0.95350   1.000
    C197    C    0.85757   0.06295   0.93371   1.000
    C198    C    0.04936   0.04724   0.88917   1.000
    H199    H    0.04379   0.04202   0.90223   1.000
    C200    C    0.06446   0.06150   0.85590   1.000
    C201    C    0.95209   0.95056   0.88865   1.000
    H202    H    0.95775   0.95643   0.90138   1.000
    C203    C    0.93667   0.93446   0.85640   1.000
    C204    C    0.11012   0.04663   0.95071   1.000
    H205    H    0.09702   0.04136   0.95613   1.000
    C206    C    0.14356   0.06093   0.93596   1.000
    C207    C    0.89073   0.95184   0.94897   1.000
    H208    H    0.90357   0.95729   0.95484   1.000
    C209    C    0.85814   0.93697   0.93293   1.000
    C210    C    0.04991   0.10888   0.94977   1.000
    H211    H    0.04399   0.09610   0.95533   1.000
    C212    C    0.06605   0.14134   0.93466   1.000
    C213    C    0.95049   0.88914   0.95034   1.000
    H214    H    0.95595   0.90226   0.95553   1.000
    C215    C    0.93569   0.85566   0.93628   1.000
    C216    C    0.96057   0.43588   0.38359   1.000
    C217    C    0.95293   0.42814   0.36732   1.000
    H218    H    0.95940   0.41595   0.36111   1.000
    C219    C    0.04007   0.56628   0.38367   1.000
    C220    C    0.04733   0.57414   0.36726   1.000
    H221    H    0.04082   0.58648   0.36128   1.000
    C222    C    0.88125   0.46017   0.43574   1.000
    C223    C    0.86447   0.45306   0.42847   1.000
    H224    H    0.85831   0.45942   0.41615   1.000
    C225    C    0.11810   0.54039   0.43628   1.000
    C226    C    0.13512   0.54730   0.42945   1.000
    H227    H    0.14136   0.54112   0.41714   1.000
    C228    C    0.93563   0.38247   0.45881   1.000
    C229    C    0.92815   0.36624   0.45064   1.000
    H230    H    0.91534   0.36029   0.45607   1.000
    C231    C    0.06487   0.61852   0.46092   1.000
    C232    C    0.07190   0.63531   0.45351   1.000
    H233    H    0.08424   0.64161   0.45961   1.000
    C234    C    0.93635   0.54029   0.38330   1.000
    C235    C    0.92979   0.54730   0.36614   1.000
    H236    H    0.91793   0.54078   0.35936   1.000
    C237    C    0.06437   0.46114   0.38160   1.000
    C238    C    0.07144   0.45416   0.36473   1.000
    H239    H    0.08350   0.46074   0.35837   1.000
    C240    C    0.04241   0.38219   0.43546   1.000
    C241    C    0.05038   0.36587   0.42790   1.000
    H242    H    0.04440   0.35966   0.41547   1.000
    C243    C    0.95937   0.61920   0.43701   1.000
    C244    C    0.95223   0.63609   0.42988   1.000
    H245    H    0.95857   0.64236   0.41766   1.000
    C246    C    0.88236   0.56511   0.45999   1.000
    C247    C    0.86619   0.57300   0.45210   1.000
    H248    H    0.86005   0.58536   0.45832   1.000
    C249    C    0.11959   0.43600   0.45810   1.000
    C250    C    0.13577   0.42854   0.44977   1.000
    H251    H    0.14211   0.41597   0.45545   1.000
    C252    C    0.96026   0.56468   0.38378   1.000
    C253    C    0.95355   0.57140   0.36658   1.000
    H254    H    0.95977   0.58372   0.36033   1.000
    C255    C    0.04114   0.43608   0.38197   1.000
    C256    C    0.04858   0.42917   0.36515   1.000
    H257    H    0.04270   0.41673   0.35887   1.000
    C258    C    0.11851   0.46027   0.43398   1.000
    C259    C    0.13469   0.45267   0.42593   1.000
    H260    H    0.14051   0.45905   0.41350   1.000
    C261    C    0.88220   0.54112   0.43566   1.000
    C262    C    0.86598   0.54928   0.42798   1.000
    H263    H    0.85993   0.54359   0.41533   1.000
    C264    C    0.93483   0.61911   0.46070   1.000
    C265    C    0.92775   0.63595   0.45326   1.000
    H266    H    0.91545   0.64233   0.45935   1.000
    C267    C    0.06693   0.38267   0.45929   1.000
    C268    C    0.07470   0.36643   0.45152   1.000
    H269    H    0.08724   0.36041   0.45758   1.000
    C270    C    0.06439   0.54225   0.38272   1.000
    C271    C    0.07150   0.55039   0.36628   1.000
    H272    H    0.08394   0.54466   0.35983   1.000
    C273    C    0.93580   0.45959   0.38343   1.000
    C274    C    0.92838   0.45154   0.36710   1.000
    H275    H    0.91567   0.45713   0.36098   1.000
    C276    C    0.04008   0.61890   0.43734   1.000
    C277    C    0.04728   0.63571   0.43019   1.000
    H278    H    0.04090   0.64204   0.41797   1.000
    C279    C    0.96060   0.38242   0.43544   1.000
    C280    C    0.95286   0.36622   0.42754   1.000
    H281    H    0.95937   0.35999   0.41540   1.000
    C282    C    0.11838   0.56445   0.46049   1.000
    C283    C    0.13533   0.57126   0.45333   1.000
    H284    H    0.14192   0.58331   0.45967   1.000
    C285    C    0.88120   0.43554   0.45951   1.000
    C286    C    0.86445   0.42855   0.45197   1.000
    H287    H    0.85805   0.41626   0.45808   1.000
    C288    C    0.95200   0.45169   0.39150   1.000
    H289    H    0.95761   0.45752   0.40428   1.000
    C290    C    0.93677   0.43568   0.35912   1.000
    C291    C    0.04858   0.55024   0.39122   1.000
    H292    H    0.04322   0.54431   0.40406   1.000
    C293    C    0.06312   0.56646   0.35857   1.000
    C294    C    0.88935   0.45147   0.45139   1.000
    H295    H    0.90243   0.45673   0.45689   1.000
    C296    C    0.85598   0.43723   0.43645   1.000
    C297    C    0.10996   0.54889   0.45196   1.000
    H298    H    0.09669   0.54379   0.45712   1.000
    C299    C    0.14375   0.56276   0.43781   1.000
    C300    C    0.95195   0.39036   0.45117   1.000
    H301    H    0.95761   0.40306   0.45712   1.000
    C302    C    0.93658   0.35814   0.43490   1.000
    C303    C    0.04886   0.61053   0.45283   1.000
    H304    H    0.04356   0.59740   0.45823   1.000
    C305    C    0.06321   0.64398   0.43813   1.000
    C306    C    0.95171   0.54898   0.39193   1.000
    H307    H    0.95662   0.54389   0.40534   1.000
    C308    C    0.93828   0.56286   0.35773   1.000
    C309    C    0.04906   0.45216   0.38997   1.000
    H310    H    0.04370   0.45734   0.40311   1.000
    C311    C    0.06372   0.43817   0.35643   1.000
    C312    C    0.05070   0.39035   0.45127   1.000
    H313    H    0.04487   0.40310   0.45698   1.000
    C314    C    0.06663   0.35802   0.43578   1.000
    C315    C    0.95073   0.61097   0.45254   1.000
    H316    H    0.95606   0.59782   0.45793   1.000
    C317    C    0.93642   0.64455   0.43786   1.000
    C318    C    0.89018   0.54907   0.45176   1.000
    H319    H    0.90287   0.54312   0.45757   1.000
    C320    C    0.85802   0.56534   0.43602   1.000
    C321    C    0.11117   0.45195   0.45015   1.000
    H322    H    0.09852   0.45758   0.45625   1.000
    C323    C    0.14332   0.43672   0.43356   1.000
    C324    C    0.04119   0.43494   0.61715   1.000
    C325    C    0.04812   0.42782   0.63413   1.000
    H326    H    0.04178   0.41553   0.64029   1.000
    C327    C    0.96063   0.56289   0.61771   1.000
    C328    C    0.95363   0.56984   0.63463   1.000
    H329    H    0.95993   0.58209   0.64089   1.000
    C330    C    0.88216   0.53923   0.56434   1.000
    C331    C    0.86504   0.54599   0.57114   1.000
    H332    H    0.85850   0.53934   0.58307   1.000
    C333    C    0.11999   0.45962   0.56428   1.000
    C334    C    0.13683   0.45220   0.57131   1.000
    H335    H    0.14309   0.45813   0.58373   1.000
    C336    C    0.06729   0.38279   0.53969   1.000
    C337    C    0.07487   0.36645   0.54775   1.000
    H338    H    0.08764   0.36049   0.54222   1.000
    C339    C    0.93596   0.61771   0.54086   1.000
    C340    C    0.92924   0.63460   0.54833   1.000
    H341    H    0.91696   0.64122   0.54235   1.000
    C342    C    0.93632   0.45821   0.61712   1.000
    C343    C    0.92907   0.45003   0.63347   1.000
    H344    H    0.91653   0.45571   0.63977   1.000
    C345    C    0.06539   0.53912   0.61814   1.000
    C346    C    0.07213   0.54640   0.63510   1.000
    H347    H    0.08438   0.54030   0.64165   1.000
    C348    C    0.96137   0.38157   0.56257   1.000
    C349    C    0.95433   0.36467   0.56968   1.000
    H350    H    0.96077   0.35831   0.58185   1.000
    C351    C    0.04051   0.61726   0.56470   1.000
    C352    C    0.04723   0.63425   0.57177   1.000
    H353    H    0.04074   0.64040   0.58396   1.000
    C354    C    0.88205   0.43440   0.54044   1.000
    C355    C    0.86581   0.42686   0.54862   1.000
    H356    H    0.85956   0.41433   0.54288   1.000
    C357    C    0.11903   0.56425   0.54083   1.000
    C358    C    0.13592   0.57118   0.54805   1.000
    H359    H    0.14236   0.58332   0.54170   1.000
    C360    C    0.04070   0.56282   0.61797   1.000
    C361    C    0.04748   0.56972   0.63500   1.000
    H362    H    0.04096   0.58186   0.64127   1.000
    C363    C    0.96073   0.43423   0.61637   1.000
    C364    C    0.95331   0.42630   0.63269   1.000
    H365    H    0.95978   0.41395   0.63868   1.000
    C366    C    0.11918   0.53981   0.56479   1.000
    C367    C    0.13608   0.54693   0.57179   1.000
    H368    H    0.14238   0.54064   0.58407   1.000
    C369    C    0.88264   0.45859   0.56455   1.000
    C370    C    0.86648   0.45087   0.57245   1.000
    H371    H    0.86051   0.45710   0.58485   1.000
    C372    C    0.06506   0.61772   0.54101   1.000
    C373    C    0.07175   0.63462   0.54844   1.000
    H374    H    0.08393   0.64125   0.54240   1.000
    C375    C    0.93649   0.38179   0.53905   1.000
    C376    C    0.92960   0.36496   0.54649   1.000
    H377    H    0.91723   0.35860   0.54051   1.000
    C378    C    0.06560   0.45883   0.61749   1.000
    C379    C    0.07236   0.45146   0.63443   1.000
    H380    H    0.08444   0.45772   0.64106   1.000
    C381    C    0.93625   0.53900   0.61774   1.000
    C382    C    0.92935   0.54627   0.63460   1.000
    H383    H    0.91716   0.54006   0.64107   1.000
    C384    C    0.96067   0.61724   0.56448   1.000
    C385    C    0.95393   0.63423   0.57156   1.000
    H386    H    0.96047   0.64038   0.58374   1.000
    C387    C    0.04254   0.38263   0.56322   1.000
    C388    C    0.05029   0.36633   0.57099   1.000
    H389    H    0.04385   0.35999   0.58313   1.000
    C390    C    0.12046   0.43632   0.53935   1.000
    C391    C    0.13735   0.42923   0.54649   1.000
    H392    H    0.14376   0.41713   0.54003   1.000
    C393    C    0.88218   0.56410   0.54077   1.000
    C394    C    0.86526   0.57088   0.54807   1.000
    H395    H    0.85875   0.58323   0.54209   1.000
    C396    C    0.04990   0.45057   0.60907   1.000
    H397    H    0.04481   0.45594   0.59584   1.000
    C398    C    0.06373   0.43595   0.64283   1.000
    C399    C    0.95200   0.54733   0.60949   1.000
    H400    H    0.95718   0.54207   0.59631   1.000
    C401    C    0.93797   0.56169   0.64312   1.000
    C402    C    0.89048   0.54822   0.54897   1.000
    H403    H    0.90376   0.54318   0.54373   1.000
    C404    C    0.85663   0.56186   0.56317   1.000
    C405    C    0.11202   0.45167   0.54821   1.000
    H406    H    0.09884   0.45703   0.54293   1.000
    C407    C    0.14558   0.43700   0.56248   1.000
    C408    C    0.05103   0.39068   0.54747   1.000
    H409    H    0.04531   0.40345   0.54162   1.000
    C410    C    0.06653   0.35826   0.56352   1.000
    C411    C    0.95178   0.60922   0.54896   1.000
    H412    H    0.95681   0.59599   0.54358   1.000
    C413    C    0.93821   0.64294   0.56365   1.000
    C414    C    0.95225   0.45027   0.60879   1.000
    H415    H    0.95772   0.45625   0.59601   1.000
    C416    C    0.93741   0.43396   0.64125   1.000
    C417    C    0.04958   0.54736   0.60977   1.000
    H418    H    0.04453   0.54213   0.59651   1.000
    C419    C    0.06320   0.56168   0.64360   1.000
    C420    C    0.95248   0.38991   0.54711   1.000
    H421    H    0.95764   0.40310   0.54174   1.000
    C422    C    0.93840   0.35635   0.56182   1.000
    C423    C    0.04934   0.60924   0.54917   1.000
    H424    H    0.04433   0.59602   0.54381   1.000
    C425    C    0.06285   0.64298   0.56379   1.000
    C426    C    0.89023   0.45038   0.54846   1.000
    H427    H    0.90291   0.45609   0.54252   1.000
    C428    C    0.85808   0.43493   0.56476   1.000
    C429    C    0.11087   0.54846   0.54919   1.000
    H430    H    0.09768   0.54323   0.54391   1.000
    C431    C    0.14452   0.56264   0.56355   1.000
    C432    C    0.45979   0.93560   0.38229   1.000
    C433    C    0.45229   0.92781   0.36594   1.000
    H434    H    0.45881   0.91559   0.35984   1.000
    C435    C    0.53879   0.06460   0.38189   1.000
    C436    C    0.54585   0.07175   0.36505   1.000
    H437    H    0.53933   0.08390   0.35869   1.000
    C438    C    0.38171   0.95884   0.43481   1.000
    C439    C    0.36542   0.95081   0.42734   1.000
    H440    H    0.35923   0.95659   0.41475   1.000
    C441    C    0.61745   0.04224   0.43627   1.000
    C442    C    0.63377   0.05032   0.42891   1.000
    H443    H    0.63992   0.04465   0.41633   1.000
    C444    C    0.43604   0.88176   0.45911   1.000
    C445    C    0.42871   0.86548   0.45088   1.000
    H446    H    0.41610   0.85922   0.45643   1.000
    C447    C    0.56251   0.11741   0.46030   1.000
    C448    C    0.57026   0.13364   0.45252   1.000
    H449    H    0.58246   0.13991   0.45893   1.000
    C450    C    0.43396   0.04036   0.38167   1.000
    C451    C    0.42616   0.04813   0.36541   1.000
    H452    H    0.41388   0.04179   0.35923   1.000
    C453    C    0.56472   0.96129   0.38287   1.000
    C454    C    0.57162   0.95415   0.36596   1.000
    H455    H    0.58379   0.96043   0.35952   1.000
    C456    C    0.54143   0.88338   0.43596   1.000
    C457    C    0.54960   0.86705   0.42864   1.000
    H458    H    0.54397   0.86079   0.41607   1.000
    C459    C    0.45810   0.11693   0.43590   1.000
    C460    C    0.45016   0.13347   0.42873   1.000
    H461    H    0.45589   0.13984   0.41625   1.000
    C462    C    0.38068   0.06333   0.45921   1.000
    C463    C    0.36444   0.07124   0.45144   1.000
    H464    H    0.35825   0.08349   0.45784   1.000
    C465    C    0.61811   0.93762   0.46135   1.000
    C466    C    0.63503   0.93061   0.45433   1.000
    H467    H    0.64132   0.91830   0.46062   1.000
    C468    C    0.45783   0.06483   0.38156   1.000
    C469    C    0.44976   0.07243   0.36524   1.000
    H470    H    0.45544   0.08510   0.35919   1.000
    C471    C    0.54037   0.93736   0.38275   1.000
    C472    C    0.54736   0.93055   0.36578   1.000
    H473    H    0.54109   0.91834   0.35944   1.000
    C474    C    0.61809   0.96159   0.43692   1.000
    C475    C    0.63495   0.95425   0.43001   1.000
    H476    H    0.64139   0.96044   0.41780   1.000
    C477    C    0.38063   0.03972   0.43458   1.000
    C478    C    0.36436   0.04788   0.42699   1.000
    H479    H    0.35840   0.04236   0.41423   1.000
    C480    C    0.43411   0.11621   0.46014   1.000
    C481    C    0.42642   0.13272   0.45278   1.000
    H482    H    0.41410   0.13880   0.45914   1.000
    C483    C    0.56529   0.88385   0.46045   1.000
    C484    C    0.57323   0.86761   0.45293   1.000
    H485    H    0.58558   0.86154   0.45934   1.000
    C486    C    0.56381   0.04124   0.38232   1.000
    C487    C    0.57072   0.04864   0.36550   1.000
    H488    H    0.58312   0.04265   0.35923   1.000
    C489    C    0.43509   0.95934   0.38182   1.000
    C490    C    0.42779   0.95129   0.36547   1.000
    H491    H    0.41511   0.95690   0.35931   1.000
    C492    C    0.53884   0.11736   0.43555   1.000
    C493    C    0.54692   0.13362   0.42797   1.000
    H494    H    0.54136   0.13960   0.41519   1.000
    C495    C    0.46057   0.88245   0.43539   1.000
    C496    C    0.45310   0.86621   0.42744   1.000
    H497    H    0.45959   0.86024   0.41516   1.000
    C498    C    0.61696   0.06608   0.46070   1.000
    C499    C    0.63324   0.07398   0.45310   1.000
    H500    H    0.63926   0.08631   0.45946   1.000
    C501    C    0.38228   0.93470   0.45905   1.000
    C502    C    0.36600   0.92690   0.45138   1.000
    H503    H    0.35998   0.91450   0.45765   1.000
    C504    C    0.45120   0.95147   0.39002   1.000
    H505    H    0.45671   0.95734   0.40282   1.000
    C506    C    0.43621   0.93542   0.35753   1.000
    C507    C    0.54773   0.04921   0.39029   1.000
    H508    H    0.54253   0.04382   0.40344   1.000
    C509    C    0.56182   0.06391   0.35679   1.000
    C510    C    0.38993   0.95078   0.45078   1.000
    H511    H    0.40269   0.95666   0.45641   1.000
    C512    C    0.35757   0.93474   0.43545   1.000
    C513    C    0.60929   0.05011   0.45227   1.000
    H514    H    0.59655   0.04416   0.45783   1.000
    C515    C    0.64169   0.06627   0.43716   1.000
    C516    C    0.45207   0.89002   0.45132   1.000
    H517    H    0.45760   0.90277   0.45730   1.000
    C518    C    0.43709   0.85774   0.43490   1.000
    C519    C    0.54669   0.10941   0.45181   1.000
    H520    H    0.54085   0.09667   0.45753   1.000
    C521    C    0.56277   0.14169   0.43627   1.000
    C522    C    0.44989   0.04871   0.38954   1.000
    H523    H    0.45577   0.04297   0.40228   1.000
    C524    C    0.43381   0.06423   0.35719   1.000
    C525    C    0.54899   0.95288   0.39108   1.000
    H526    H    0.54380   0.95803   0.40430   1.000
    C527    C    0.56300   0.93879   0.35734   1.000
    C528    C    0.54930   0.89156   0.45199   1.000
    H529    H    0.54333   0.90432   0.45753   1.000
    C530    C    0.56562   0.85923   0.43697   1.000
    C531    C    0.45006   0.10850   0.45173   1.000
    H532    H    0.45584   0.09554   0.45712   1.000
    C533    C    0.43420   0.14131   0.43700   1.000
    C534    C    0.38856   0.04747   0.45079   1.000
    H535    H    0.40129   0.04153   0.45653   1.000
    C536    C    0.35629   0.06378   0.43525   1.000
    C537    C    0.60986   0.95326   0.45270   1.000
    H538    H    0.59665   0.95856   0.45787   1.000
    C539    C    0.64347   0.93874   0.43863   1.000
    C540    C    0.54016   0.93550   0.61839   1.000
    C541    C    0.54824   0.92802   0.63472   1.000
    H542    H    0.54274   0.91526   0.64076   1.000
    C543    C    0.45790   0.06369   0.61978   1.000
    C544    C    0.45035   0.07053   0.63655   1.000
    H545    H    0.45637   0.08280   0.64304   1.000
    C546    C    0.38126   0.03917   0.56531   1.000
    C547    C    0.36497   0.04718   0.57284   1.000
    H548    H    0.35912   0.04163   0.58564   1.000
    C549    C    0.61664   0.96123   0.56561   1.000
    C550    C    0.63305   0.95373   0.57335   1.000
    H551    H    0.63913   0.96003   0.58569   1.000
    C552    C    0.56505   0.88266   0.54098   1.000
    C553    C    0.57258   0.86615   0.54868   1.000
    H554    H    0.58520   0.86015   0.54286   1.000
    C555    C    0.43318   0.11605   0.54063   1.000
    C556    C    0.42535   0.13252   0.54782   1.000
    H557    H    0.41317   0.13863   0.54114   1.000
    C558    C    0.43501   0.95837   0.61853   1.000
    C559    C    0.42771   0.95027   0.63488   1.000
    H560    H    0.41510   0.95591   0.64108   1.000
    C561    C    0.56310   0.04136   0.61880   1.000
    C562    C    0.57111   0.04915   0.63485   1.000
    H563    H    0.58365   0.04298   0.64077   1.000
    C564    C    0.45994   0.88189   0.56462   1.000
    C565    C    0.45197   0.86558   0.57220   1.000
    H566    H    0.45767   0.85956   0.58490   1.000
    C567    C    0.53722   0.11760   0.56504   1.000
    C568    C    0.54419   0.13455   0.57198   1.000
    H569    H    0.53789   0.14082   0.58420   1.000
    C570    C    0.38247   0.93516   0.53957   1.000
    C571    C    0.36545   0.92832   0.54657   1.000
    H572    H    0.35895   0.91623   0.54021   1.000
    C573    C    0.61694   0.06535   0.54138   1.000
    C574    C    0.63396   0.07216   0.54849   1.000
    H575    H    0.64049   0.08420   0.54205   1.000
    C576    C    0.53880   0.06545   0.61944   1.000
    C577    C    0.54708   0.07310   0.63557   1.000
    H578    H    0.54131   0.08565   0.64177   1.000
    C579    C    0.45960   0.93459   0.61815   1.000
    C580    C    0.45212   0.92672   0.63444   1.000
    H581    H    0.45858   0.91441   0.64055   1.000
    C582    C    0.61685   0.04115   0.56552   1.000
    C583    C    0.63389   0.04804   0.57237   1.000
    H584    H    0.64015   0.04172   0.58466   1.000
    C585    C    0.38239   0.95930   0.56372   1.000
    C586    C    0.36529   0.95239   0.57031   1.000
    H587    H    0.35886   0.95862   0.58249   1.000
    C588    C    0.56168   0.11767   0.54118   1.000
    C589    C    0.56850   0.13457   0.54848   1.000
    H590    H    0.58069   0.14109   0.54233   1.000
    C591    C    0.43604   0.88198   0.54014   1.000
    C592    C    0.42833   0.86571   0.54792   1.000
    H593    H    0.41604   0.85951   0.54162   1.000
    C594    C    0.56362   0.96032   0.61841   1.000
    C595    C    0.57148   0.95262   0.63467   1.000
    H596    H    0.58368   0.95906   0.64091   1.000
    C597    C    0.43433   0.03898   0.61953   1.000
    C598    C    0.42706   0.04592   0.63635   1.000
    H599    H    0.41481   0.03945   0.64243   1.000
    C600    C    0.45676   0.11668   0.56541   1.000
    C601    C    0.44864   0.13317   0.57241   1.000
    H602    H    0.45418   0.13951   0.58498   1.000
    C603    C    0.54072   0.88244   0.56487   1.000
    C604    C    0.54842   0.86597   0.57235   1.000
    H605    H    0.54212   0.85957   0.58453   1.000
    C606    C    0.61727   0.93706   0.54162   1.000
    C607    C    0.63370   0.92972   0.54959   1.000
    H608    H    0.64000   0.91720   0.54385   1.000
    C609    C    0.38093   0.06271   0.54049   1.000
    C610    C    0.36468   0.07048   0.54821   1.000
    H611    H    0.35834   0.08268   0.54177   1.000
    C612    C    0.54786   0.95177   0.61045   1.000
    H613    H    0.54197   0.95743   0.59768   1.000
    C614    C    0.56403   0.93642   0.64280   1.000
    C615    C    0.44989   0.04781   0.61152   1.000
    H616    H    0.45538   0.04267   0.59841   1.000
    C617    C    0.43494   0.06169   0.64495   1.000
    C618    C    0.38902   0.04694   0.54903   1.000
    H619    H    0.40178   0.04109   0.54335   1.000
    C620    C    0.35671   0.06295   0.56446   1.000
    C621    C    0.60893   0.95293   0.54963   1.000
    H622    H    0.59606   0.95846   0.54381   1.000
    C623    C    0.64155   0.93789   0.56557   1.000
    C624    C    0.54901   0.89058   0.54908   1.000
    H625    H    0.54333   0.90348   0.54347   1.000
    C626    C    0.56442   0.85782   0.56447   1.000
    C627    C    0.44899   0.10831   0.54941   1.000
    H628    H    0.45492   0.09543   0.54410   1.000
    C629    C    0.43283   0.14108   0.56376   1.000
    C630    C    0.45107   0.95052   0.61039   1.000
    H631    H    0.45659   0.95644   0.59760   1.000
    C632    C    0.43611   0.93433   0.64280   1.000
    C633    C    0.54686   0.04948   0.61130   1.000
    H634    H    0.54084   0.04369   0.59869   1.000
    C635    C    0.56338   0.06509   0.64321   1.000
    C636    C    0.45195   0.88989   0.54849   1.000
    H637    H    0.45775   0.90266   0.54277   1.000
    C638    C    0.43605   0.85754   0.56403   1.000
    C639    C    0.54594   0.10935   0.54949   1.000
    H640    H    0.54083   0.09612   0.54423   1.000
    C641    C    0.55988   0.14304   0.56389   1.000
    C642    C    0.39077   0.95076   0.54818   1.000
    H643    H    0.40410   0.95588   0.54316   1.000
    C644    C    0.35680   0.93690   0.56191   1.000
    C645    C    0.60863   0.04974   0.54989   1.000
    H646    H    0.59536   0.04462   0.54471   1.000
    C647    C    0.64256   0.06353   0.56398   1.000
    C648    C    0.45982   0.43679   0.88253   1.000
    C649    C    0.45244   0.43000   0.86568   1.000
    H650    H    0.45872   0.41791   0.85908   1.000
    C651    C    0.54209   0.56377   0.88100   1.000
    C652    C    0.55027   0.57124   0.86477   1.000
    H653    H    0.54463   0.58391   0.85860   1.000
    C654    C    0.38209   0.46126   0.93708   1.000
    C655    C    0.36531   0.45395   0.92998   1.000
    H656    H    0.35919   0.45995   0.91747   1.000
    C657    C    0.61821   0.53985   0.93572   1.000
    C658    C    0.63438   0.54797   0.92803   1.000
    H659    H    0.64037   0.54225   0.91539   1.000
    C660    C    0.43536   0.38428   0.96174   1.000
    C661    C    0.42807   0.36746   0.95476   1.000
    H662    H    0.41584   0.36132   0.96121   1.000
    C663    C    0.56523   0.61729   0.95946   1.000
    C664    C    0.57283   0.63370   0.95189   1.000
    H665    H    0.58491   0.64008   0.95842   1.000
    C666    C    0.43613   0.54062   0.88238   1.000
    C667    C    0.42909   0.54770   0.86545   1.000
    H668    H    0.41674   0.54150   0.85925   1.000
    C669    C    0.56539   0.45854   0.88288   1.000
    C670    C    0.57313   0.45065   0.86673   1.000
    H671    H    0.58558   0.45676   0.86067   1.000
    C672    C    0.53936   0.38207   0.93655   1.000
    C673    C    0.54740   0.36579   0.92901   1.000
    H674    H    0.54188   0.35994   0.91621   1.000
    C675    C    0.46233   0.61837   0.93433   1.000
    C676    C    0.45528   0.63525   0.92710   1.000
    H677    H    0.46126   0.64114   0.91450   1.000
    C678    C    0.38457   0.56635   0.96073   1.000
    C679    C    0.36753   0.57338   0.95388   1.000
    H680    H    0.36152   0.58588   0.95995   1.000
    C681    C    0.61667   0.43433   0.96125   1.000
    C682    C    0.63306   0.42646   0.95389   1.000
    H683    H    0.63901   0.41406   0.96029   1.000
    C684    C    0.46098   0.56404   0.88151   1.000
    C685    C    0.45374   0.57089   0.86457   1.000
    H686    H    0.46015   0.58292   0.85797   1.000
    C687    C    0.54095   0.43463   0.88252   1.000
    C688    C    0.54896   0.42691   0.86630   1.000
    H689    H    0.54301   0.41442   0.86019   1.000
    C690    C    0.61759   0.45848   0.93703   1.000
    C691    C    0.63398   0.45034   0.92986   1.000
    H692    H    0.64034   0.45607   0.91738   1.000
    C693    C    0.38367   0.54182   0.93706   1.000
    C694    C    0.36669   0.54912   0.93035   1.000
    H695    H    0.35981   0.54264   0.91854   1.000
    C696    C    0.43873   0.61935   0.95895   1.000
    C697    C    0.43180   0.63617   0.95142   1.000
    H698    H    0.41990   0.64299   0.95783   1.000
    C699    C    0.56296   0.38185   0.96126   1.000
    C700    C    0.57075   0.36560   0.95356   1.000
    H701    H    0.58298   0.35930   0.95996   1.000
    C702    C    0.56607   0.53936   0.88170   1.000
    C703    C    0.57405   0.54702   0.86551   1.000
    H704    H    0.58648   0.54070   0.85962   1.000
    C705    C    0.43569   0.46105   0.88292   1.000
    C706    C    0.42858   0.45414   0.86602   1.000
    H707    H    0.41621   0.46045   0.85989   1.000
    C708    C    0.54183   0.61709   0.93455   1.000
    C709    C    0.54965   0.63353   0.92718   1.000
    H710    H    0.54408   0.63954   0.91442   1.000
    C711    C    0.45895   0.38399   0.93697   1.000
    C712    C    0.45132   0.36722   0.93019   1.000
    H713    H    0.45731   0.36064   0.91797   1.000
    C714    C    0.61794   0.56399   0.95984   1.000
    C715    C    0.63415   0.57174   0.95204   1.000
    H716    H    0.64030   0.58407   0.95829   1.000
    C717    C    0.38188   0.43738   0.96160   1.000
    C718    C    0.36514   0.43021   0.95422   1.000
    H719    H    0.35865   0.41815   0.96069   1.000
    C720    C    0.45146   0.45243   0.89094   1.000
    H721    H    0.45683   0.45751   0.90413   1.000
    C722    C    0.43680   0.43858   0.85738   1.000
    C723    C    0.54999   0.54771   0.88921   1.000
    H724    H    0.54399   0.54209   0.90191   1.000
    C725    C    0.56636   0.56305   0.85703   1.000
    C726    C    0.39014   0.45300   0.95301   1.000
    H727    H    0.40322   0.45838   0.95840   1.000
    C728    C    0.35676   0.43839   0.93840   1.000
    C729    C    0.61016   0.54793   0.95170   1.000
    H730    H    0.59746   0.54207   0.95747   1.000
    C731    C    0.64233   0.56405   0.93602   1.000
    C732    C    0.45093   0.39235   0.95285   1.000
    H733    H    0.45648   0.40546   0.95798   1.000
    C734    C    0.43588   0.35889   0.93897   1.000
    C735    C    0.54961   0.60917   0.95081   1.000
    H736    H    0.54390   0.59630   0.95639   1.000
    C737    C    0.56526   0.64180   0.93569   1.000
    C738    C    0.45218   0.54877   0.89020   1.000
    H739    H    0.45750   0.54359   0.90342   1.000
    C740    C    0.43778   0.56285   0.85647   1.000
    C741    C    0.54921   0.45053   0.89056   1.000
    H742    H    0.54338   0.45637   0.90322   1.000
    C743    C    0.56518   0.43476   0.85842   1.000
    C744    C    0.54715   0.38989   0.95279   1.000
    H745    H    0.54131   0.40265   0.95846   1.000
    C746    C    0.56324   0.35762   0.93735   1.000
    C747    C    0.45411   0.61064   0.95039   1.000
    H748    H    0.45931   0.59748   0.95588   1.000
    C749    C    0.43998   0.64419   0.93549   1.000
    C750    C    0.39243   0.55043   0.95236   1.000
    H751    H    0.40572   0.54512   0.95738   1.000
    C752    C    0.35857   0.56493   0.93865   1.000
    C753    C    0.60912   0.45044   0.95284   1.000
    H754    H    0.59628   0.45638   0.95823   1.000
    C755    C    0.64170   0.43424   0.93812   1.000
    C756    C    0.54168   0.43673   0.11973   1.000
    C757    C    0.54978   0.42930   0.13609   1.000
    H758    H    0.54383   0.41696   0.14255   1.000
    C759    C    0.46155   0.56648   0.11884   1.000
    C760    C    0.45456   0.57364   0.13569   1.000
    H761    H    0.46105   0.58581   0.14191   1.000
    C762    C    0.38410   0.54339   0.06450   1.000
    C763    C    0.36759   0.55140   0.07152   1.000
    H764    H    0.36112   0.54562   0.08392   1.000
    C765    C    0.61889   0.45882   0.06484   1.000
    C766    C    0.63526   0.45061   0.07215   1.000
    H767    H    0.64184   0.45649   0.08444   1.000
    C768    C    0.56312   0.38186   0.04225   1.000
    C769    C    0.56996   0.36482   0.04930   1.000
    H770    H    0.58191   0.35824   0.04275   1.000
    C771    C    0.43821   0.62029   0.04052   1.000
    C772    C    0.43020   0.63632   0.04850   1.000
    H773    H    0.41790   0.64255   0.04218   1.000
    C774    C    0.43635   0.46270   0.11944   1.000
    C775    C    0.42895   0.45574   0.13619   1.000
    H776    H    0.41656   0.46214   0.14210   1.000
    C777    C    0.56641   0.54054   0.11712   1.000
    C778    C    0.57406   0.54786   0.13358   1.000
    H779    H    0.58637   0.54143   0.13970   1.000
    C780    C    0.46019   0.38437   0.06666   1.000
    C781    C    0.45322   0.36732   0.07345   1.000
    H782    H    0.45947   0.36094   0.08572   1.000
    C783    C    0.54245   0.61898   0.06506   1.000
    C784    C    0.55064   0.63528   0.07235   1.000
    H785    H    0.54506   0.64149   0.08496   1.000
    C786    C    0.38215   0.43781   0.04254   1.000
    C787    C    0.36545   0.43076   0.05015   1.000
    H788    H    0.35899   0.41852   0.04404   1.000
    C789    C    0.61906   0.56444   0.04015   1.000
    C790    C    0.63543   0.57219   0.04766   1.000
    H791    H    0.64137   0.58463   0.04140   1.000
    C792    C    0.54237   0.56493   0.11771   1.000
    C793    C    0.55029   0.57203   0.13420   1.000
    H794    H    0.54453   0.58451   0.14055   1.000
    C795    C    0.46016   0.43805   0.12015   1.000
    C796    C    0.45237   0.43117   0.13684   1.000
    H797    H    0.45828   0.41886   0.14346   1.000
    C798    C    0.61988   0.54018   0.06423   1.000
    C799    C    0.63630   0.54814   0.07157   1.000
    H800    H    0.64265   0.54229   0.08403   1.000
    C801    C    0.38232   0.46236   0.06629   1.000
    C802    C    0.36558   0.45516   0.07361   1.000
    H803    H    0.35948   0.46149   0.08591   1.000
    C804    C    0.56615   0.61836   0.04053   1.000
    C805    C    0.57411   0.63464   0.04801   1.000
    H806    H    0.58640   0.64064   0.04154   1.000
    C807    C    0.43600   0.38439   0.04243   1.000
    C808    C    0.42918   0.36739   0.04955   1.000
    H809    H    0.41714   0.36085   0.04313   1.000
    C810    C    0.56632   0.46037   0.11854   1.000
    C811    C    0.57412   0.45281   0.13489   1.000
    H812    H    0.58666   0.45894   0.14074   1.000
    C813    C    0.43676   0.54297   0.11885   1.000
    C814    C    0.42990   0.55044   0.13566   1.000
    H815    H    0.41762   0.54440   0.14211   1.000
    C816    C    0.46179   0.61994   0.06530   1.000
    C817    C    0.45355   0.63598   0.07310   1.000
    H818    H    0.45900   0.64166   0.08602   1.000
    C819    C    0.53987   0.38257   0.06723   1.000
    C820    C    0.54701   0.36555   0.07417   1.000
    H821    H    0.54094   0.35929   0.08654   1.000
    C822    C    0.61746   0.43433   0.04118   1.000
    C823    C    0.63376   0.42633   0.04866   1.000
    H824    H    0.63948   0.41372   0.04254   1.000
    C825    C    0.38505   0.56752   0.04025   1.000
    C826    C    0.36856   0.57528   0.04747   1.000
    H827    H    0.36257   0.58765   0.04102   1.000
    C828    C    0.55000   0.45236   0.11117   1.000
    H829    H    0.54411   0.45795   0.09836   1.000
    C830    C    0.56612   0.43718   0.14365   1.000
    C831    C    0.45268   0.55101   0.11065   1.000
    H832    H    0.45785   0.54558   0.09753   1.000
    C833    C    0.43872   0.56578   0.14418   1.000
    C834    C    0.39263   0.55146   0.04874   1.000
    H835    H    0.40555   0.54560   0.04345   1.000
    C836    C    0.35984   0.56744   0.06316   1.000
    C837    C    0.61023   0.45066   0.04923   1.000
    H838    H    0.59744   0.45666   0.04371   1.000
    C839    C    0.64265   0.43424   0.06421   1.000
    C840    C    0.54794   0.39050   0.05118   1.000
    H841    H    0.54277   0.40377   0.04594   1.000
    C842    C    0.56205   0.35656   0.06525   1.000
    C843    C    0.45412   0.61233   0.04891   1.000
    H844    H    0.46014   0.59975   0.04303   1.000
    C845    C    0.43762   0.64415   0.06489   1.000
    C846    C    0.45210   0.45392   0.11166   1.000
    H847    H    0.45772   0.45907   0.09859   1.000
    C848    C    0.43677   0.43997   0.14493   1.000
    C849    C    0.55045   0.54906   0.10934   1.000
    H850    H    0.54469   0.54370   0.09643   1.000
    C851    C    0.56624   0.56366   0.14208   1.000
    C852    C    0.45162   0.39269   0.05100   1.000
    H853    H    0.45674   0.40597   0.04584   1.000
    C854    C    0.43770   0.35880   0.06505   1.000
    C855    C    0.55022   0.61075   0.04904   1.000
    H856    H    0.54423   0.59800   0.04353   1.000
    C857    C    0.56658   0.64312   0.06399   1.000
    C858    C    0.39036   0.45369   0.05065   1.000
    H859    H    0.40339   0.45900   0.04510   1.000
    C860    C    0.35705   0.43934   0.06570   1.000
    C861    C    0.61150   0.54834   0.04841   1.000
    H862    H    0.59865   0.54253   0.04289   1.000
    C863    C    0.64403   0.56428   0.06345   1.000
    C864    C    0.10692   0.13845   0.25720   1.000
    C865    C    0.09768   0.13094   0.24176   1.000
    C866    C    0.10463   0.11495   0.23282   1.000
    C867    C    0.12101   0.10648   0.23982   1.000
    C868    C    0.13030   0.11404   0.25525   1.000
    C869    C    0.12332   0.13008   0.26416   1.000
    C870    C    0.09403   0.10726   0.21674   1.000
    C871    C    0.10163   0.09599   0.20387   1.000
    C872    C    0.09119   0.08829   0.18771   1.000
    C873    C    0.10144   0.08153   0.17246   1.000
    C874    C    0.09236   0.07368   0.15711   1.000
    C875    C    0.07277   0.07227   0.15669   1.000
    C876    C    0.06244   0.07905   0.17189   1.000
    C877    C    0.07153   0.08689   0.18732   1.000
    H878    H    0.10120   0.15090   0.26360   1.000
    H879    H    0.08505   0.13770   0.23673   1.000
    H880    H    0.12653   0.09377   0.23379   1.000
    H881    H    0.14271   0.10704   0.26041   1.000
    H882    H    0.07969   0.11183   0.21514   1.000
    H883    H    0.11641   0.09282   0.20459   1.000
    H884    H    0.11656   0.08236   0.17240   1.000
    H885    H    0.10069   0.06881   0.14548   1.000
    H886    H    0.04734   0.07790   0.17204   1.000
    H887    H    0.06310   0.09137   0.19899   1.000
    C888    C    0.14169   0.61406   0.75385   1.000
    C889    C    0.13436   0.60517   0.73817   1.000
    C890    C    0.11653   0.60977   0.73142   1.000
    C891    C    0.10627   0.62388   0.74056   1.000
    C892    C    0.11362   0.63279   0.75635   1.000
    C893    C    0.13138   0.62788   0.76326   1.000
    C894    C    0.10965   0.59983   0.71460   1.000
    C895    C    0.09164   0.59913   0.70935   1.000
    C896    C    0.08499   0.58876   0.69266   1.000
    C897    C    0.06586   0.58466   0.69115   1.000
    C898    C    0.05884   0.57547   0.67544   1.000
    C899    C    0.07083   0.57014   0.66088   1.000
    C900    C    0.08998   0.57408   0.66237   1.000
    C901    C    0.09699   0.58342   0.67800   1.000
    H902    H    0.15555   0.61005   0.75843   1.000
    H903    H    0.14270   0.59457   0.73129   1.000
    H904    H    0.09271   0.62832   0.73551   1.000
    H905    H    0.10532   0.64344   0.76315   1.000
    H906    H    0.11994   0.59193   0.70687   1.000
    H907    H    0.08111   0.60571   0.71795   1.000
    H908    H    0.05626   0.58866   0.70213   1.000
    H909    H    0.04400   0.57259   0.67462   1.000
    H910    H    0.09945   0.57053   0.65114   1.000
    H911    H    0.11170   0.58682   0.67814   1.000
    C912    C    0.60745   0.13501   0.76213   1.000
    C913    C    0.59812   0.12708   0.74702   1.000
    C914    C    0.60604   0.11223   0.73711   1.000
    C915    C    0.62354   0.10518   0.74289   1.000
    C916    C    0.63296   0.11313   0.75810   1.000
    C917    C    0.62508   0.12825   0.76797   1.000
    C918    C    0.59527   0.10446   0.72120   1.000
    C919    C    0.60288   0.09448   0.70734   1.000
    C920    C    0.59209   0.08763   0.69100   1.000
    C921    C    0.60195   0.08265   0.67484   1.000
    C922    C    0.59255   0.07576   0.65923   1.000
    C923    C    0.57302   0.07359   0.65942   1.000
    C924    C    0.56305   0.07872   0.67546   1.000
    C925    C    0.57248   0.08553   0.69117   1.000
    H926    H    0.60055   0.14649   0.76906   1.000
    H927    H    0.58463   0.13272   0.74297   1.000
    H928    H    0.62991   0.09337   0.73596   1.000
    H929    H    0.64636   0.10730   0.76207   1.000
    H930    H    0.58064   0.10825   0.72043   1.000
    H931    H    0.61782   0.09203   0.70729   1.000
    H932    H    0.61702   0.08409   0.67429   1.000
    H933    H    0.60057   0.07207   0.64696   1.000
    H934    H    0.54803   0.07689   0.67604   1.000
    H935    H    0.56433   0.08863   0.70348   1.000
    C936    C    0.60809   0.63800   0.25895   1.000
    C937    C    0.59873   0.62978   0.24398   1.000
    C938    C    0.60598   0.61380   0.23533   1.000
    C939    C    0.62267   0.60590   0.24224   1.000
    C940    C    0.63207   0.61414   0.25722   1.000
    C941    C    0.62493   0.63033   0.26574   1.000
    C942    C    0.59553   0.60564   0.21947   1.000
    C943    C    0.60355   0.59488   0.20645   1.000
    C944    C    0.59338   0.58723   0.19015   1.000
    C945    C    0.60381   0.58155   0.17460   1.000
    C946    C    0.59496   0.57404   0.15899   1.000
    C947    C    0.57544   0.57192   0.15862   1.000
    C948    C    0.56493   0.57755   0.17414   1.000
    C949    C    0.57380   0.58502   0.18984   1.000
    H950    H    0.60197   0.65033   0.26516   1.000
    H951    H    0.58580   0.63602   0.23906   1.000
    H952    H    0.62841   0.59320   0.23639   1.000
    H953    H    0.64490   0.60773   0.26208   1.000
    H954    H    0.58101   0.60964   0.21801   1.000
    H955    H    0.61845   0.59232   0.20704   1.000
    H956    H    0.61888   0.58305   0.17448   1.000
    H957    H    0.60338   0.57001   0.14710   1.000
    H958    H    0.54989   0.57580   0.17428   1.000
    H959    H    0.56528   0.58866   0.20174   1.000
    C960    C    0.86235   0.89208   0.25957   1.000
    C961    C    0.87007   0.90139   0.24430   1.000
    C962    C    0.88596   0.89436   0.23535   1.000
    C963    C    0.89422   0.87782   0.24224   1.000
    C964    C    0.88652   0.86846   0.25763   1.000
    C965    C    0.87039   0.87541   0.26655   1.000
    C966    C    0.89354   0.90501   0.21923   1.000
    C967    C    0.90421   0.89737   0.20589   1.000
    C968    C    0.91101   0.90784   0.18929   1.000
    C969    C    0.91657   0.89761   0.17356   1.000
    C970    C    0.92353   0.90669   0.15778   1.000
    C971    C    0.92528   0.92627   0.15736   1.000
    C972    C    0.91955   0.93661   0.17298   1.000
    C973    C    0.91259   0.92750   0.18885   1.000
    H974    H    0.85004   0.89824   0.26575   1.000
    H975    H    0.86347   0.91414   0.23937   1.000
    H976    H    0.90680   0.87220   0.23605   1.000
    H977    H    0.89333   0.85582   0.26245   1.000
    H978    H    0.88906   0.91941   0.21781   1.000
    H979    H    0.90733   0.88256   0.20647   1.000
    H980    H    0.91551   0.88250   0.17348   1.000
    H981    H    0.92761   0.89835   0.14585   1.000
    H982    H    0.92100   0.95168   0.17312   1.000
    H983    H    0.90897   0.93593   0.20083   1.000
    C984    C    0.86345   0.39149   0.75861   1.000
    C985    C    0.87151   0.40059   0.74338   1.000
    C986    C    0.88758   0.39341   0.73484   1.000
    C987    C    0.89571   0.37701   0.74217   1.000
    C988    C    0.88765   0.36784   0.75746   1.000
    C989    C    0.87132   0.37490   0.76595   1.000
    C990    C    0.89558   0.40382   0.71878   1.000
    C991    C    0.90684   0.39608   0.70599   1.000
    C992    C    0.91420   0.40638   0.68954   1.000
    C993    C    0.92035   0.39602   0.67412   1.000
    C994    C    0.92768   0.40499   0.65843   1.000
    C995    C    0.92917   0.42458   0.65782   1.000
    C996    C    0.92305   0.43502   0.67324   1.000
    C997    C    0.91574   0.42603   0.68900   1.000
    H998    H    0.85099   0.39768   0.76446   1.000
    H999    H    0.86503   0.41328   0.73815   1.000
    H1000   H    0.90845   0.37131   0.73636   1.000
    H1001   H    0.89439   0.35527   0.76257   1.000
    H1002   H    0.89103   0.41815   0.71697   1.000
    H1003   H    0.91006   0.38132   0.70688   1.000
    H1004   H    0.91939   0.38090   0.67416   1.000
    H1005   H    0.93204   0.39657   0.64667   1.000
    H1006   H    0.92431   0.45011   0.67326   1.000
    H1007   H    0.91174   0.43453   0.70080   1.000
    C1008   C    0.36352   0.89198   0.76099   1.000
    C1009   C    0.37160   0.90133   0.74593   1.000
    C1010   C    0.38702   0.89371   0.73660   1.000
    C1011   C    0.39453   0.87661   0.74299   1.000
    C1012   C    0.38643   0.86721   0.75809   1.000
    C1013   C    0.37075   0.87473   0.76723   1.000
    C1014   C    0.39497   0.90425   0.72063   1.000
    C1015   C    0.40544   0.89638   0.70727   1.000
    C1016   C    0.41283   0.90673   0.69090   1.000
    C1017   C    0.41860   0.89642   0.67530   1.000
    C1018   C    0.42595   0.90542   0.65965   1.000
    C1019   C    0.42779   0.92497   0.65928   1.000
    C1020   C    0.42199   0.93537   0.67482   1.000
    C1021   C    0.41471   0.92636   0.69055   1.000
    H1022   H    0.35164   0.89842   0.76772   1.000
    H1023   H    0.36565   0.91456   0.74144   1.000
    H1024   H    0.40679   0.87052   0.73661   1.000
    H1025   H    0.39246   0.85404   0.76252   1.000
    H1026   H    0.39101   0.91881   0.71940   1.000
    H1027   H    0.40799   0.88146   0.70767   1.000
    H1028   H    0.41737   0.88132   0.67518   1.000
    H1029   H    0.43012   0.89707   0.64776   1.000
    H1030   H    0.42352   0.95044   0.67496   1.000
    H1031   H    0.41101   0.93484   0.70246   1.000
    C1032   C    0.38528   0.36062   0.25465   1.000
    C1033   C    0.39389   0.36824   0.23897   1.000
    C1034   C    0.38793   0.38536   0.23152   1.000
    C1035   C    0.37272   0.39459   0.23993   1.000
    C1036   C    0.36399   0.38692   0.25571   1.000
    C1037   C    0.37022   0.36984   0.26343   1.000
    C1038   C    0.39778   0.39259   0.21479   1.000
    C1039   C    0.39753   0.41052   0.20927   1.000
    C1040   C    0.40818   0.41751   0.19288   1.000
    C1041   C    0.41203   0.43671   0.19159   1.000
    C1042   C    0.42170   0.44395   0.17626   1.000
    C1043   C    0.42773   0.43212   0.16184   1.000
    C1044   C    0.42397   0.41291   0.16309   1.000
    C1045   C    0.41418   0.40567   0.17835   1.000
    H1046   H    0.39064   0.34740   0.25967   1.000
    H1047   H    0.40544   0.36072   0.23269   1.000
    H1048   H    0.36731   0.40757   0.23430   1.000
    H1049   H    0.35241   0.39451   0.26177   1.000
    H1050   H    0.40654   0.38271   0.20745   1.000
    H1051   H    0.39009   0.42077   0.21751   1.000
    H1052   H    0.40751   0.44617   0.20249   1.000
    H1053   H    0.42443   0.45883   0.17564   1.000
    H1054   H    0.42805   0.40356   0.15194   1.000
    H1055   H    0.41097   0.39091   0.17834   1.000
    C1056   C    0.88937   0.14129   0.74085   1.000
    C1057   C    0.89816   0.13434   0.75688   1.000
    C1058   C    0.89200   0.11775   0.76534   1.000
    C1059   C    0.87644   0.10848   0.75765   1.000
    C1060   C    0.86760   0.11546   0.74161   1.000
    C1061   C    0.87404   0.13189   0.73293   1.000
    C1062   C    0.90188   0.11097   0.78234   1.000
    C1063   C    0.90166   0.09309   0.78810   1.000
    C1064   C    0.91181   0.08612   0.80489   1.000
    C1065   C    0.91499   0.06681   0.80664   1.000
    C1066   C    0.92391   0.05947   0.82243   1.000
    C1067   C    0.92981   0.07128   0.83693   1.000
    C1068   C    0.92677   0.09063   0.83518   1.000
    C1069   C    0.91778   0.09799   0.81941   1.000
    H1070   H    0.89458   0.15413   0.73481   1.000
    H1071   H    0.90993   0.14191   0.76263   1.000
    H1072   H    0.87083   0.09599   0.76407   1.000
    H1073   H    0.85580   0.10788   0.73599   1.000
    H1074   H    0.91043   0.12102   0.78967   1.000
    H1075   H    0.89442   0.08277   0.77978   1.000
    H1076   H    0.91050   0.05733   0.79575   1.000
    H1077   H    0.92615   0.04451   0.82333   1.000
    H1078   H    0.93081   0.10002   0.84631   1.000
    H1079   H    0.91512   0.11287   0.81899   1.000
    C1080   C    0.85933   0.60994   0.24474   1.000
    C1081   C    0.86695   0.60066   0.26017   1.000
    C1082   C    0.88372   0.60677   0.26827   1.000
    C1083   C    0.89262   0.62262   0.26074   1.000
    C1084   C    0.88499   0.63191   0.24529   1.000
    C1085   C    0.86825   0.62570   0.23709   1.000
    C1086   C    0.89092   0.59674   0.28496   1.000
    C1087   C    0.90876   0.59755   0.29075   1.000
    C1088   C    0.91580   0.58787   0.30772   1.000
    C1089   C    0.93514   0.58510   0.30972   1.000
    C1090   C    0.94246   0.57671   0.32581   1.000
    C1091   C    0.93055   0.57093   0.34026   1.000
    C1092   C    0.91120   0.57364   0.33830   1.000
    C1093   C    0.90388   0.58212   0.32228   1.000
    H1094   H    0.84646   0.60466   0.23886   1.000
    H1095   H    0.85970   0.58860   0.26578   1.000
    H1096   H    0.90521   0.62822   0.26693   1.000
    H1097   H    0.89215   0.64413   0.24002   1.000
    H1098   H    0.88114   0.58782   0.29224   1.000
    H1099   H    0.91890   0.60510   0.28248   1.000
    H1100   H    0.94465   0.58950   0.29880   1.000
    H1101   H    0.95743   0.57473   0.32696   1.000
    H1102   H    0.90175   0.56971   0.34943   1.000
    H1103   H    0.88898   0.58458   0.32171   1.000
    C1104   C    0.39118   0.13723   0.23826   1.000
    C1105   C    0.40048   0.12936   0.25355   1.000
    C1106   C    0.39295   0.11398   0.26307   1.000
    C1107   C    0.37596   0.10636   0.25668   1.000
    C1108   C    0.36662   0.11425   0.24134   1.000
    C1109   C    0.37408   0.12984   0.23196   1.000
    C1110   C    0.40355   0.10615   0.27919   1.000
    C1111   C    0.39581   0.09559   0.29261   1.000
    C1112   C    0.40621   0.08817   0.30905   1.000
    C1113   C    0.39590   0.08195   0.32451   1.000
    C1114   C    0.40488   0.07445   0.34016   1.000
    C1115   C    0.42447   0.07285   0.34072   1.000
    C1116   C    0.43488   0.07914   0.32534   1.000
    C1117   C    0.42587   0.08661   0.30960   1.000
    H1118   H    0.39759   0.14906   0.23139   1.000
    H1119   H    0.41362   0.13541   0.25802   1.000
    H1120   H    0.36991   0.09415   0.26322   1.000
    H1121   H    0.35357   0.10807   0.23689   1.000
    H1122   H    0.41806   0.11018   0.28040   1.000
    H1123   H    0.38093   0.09290   0.29218   1.000
    H1124   H    0.38077   0.08293   0.32451   1.000
    H1125   H    0.39648   0.06995   0.35190   1.000
    H1126   H    0.44997   0.07784   0.32531   1.000
    H1127   H    0.43439   0.09069   0.29784   1.000
    C1128   C    0.35851   0.60842   0.74273   1.000
    C1129   C    0.36583   0.59931   0.75843   1.000
    C1130   C    0.38206   0.60593   0.76719   1.000
    C1131   C    0.39062   0.62219   0.76017   1.000
    C1132   C    0.38330   0.63131   0.74449   1.000
    C1133   C    0.36719   0.62452   0.73550   1.000
    C1134   C    0.38922   0.59600   0.78396   1.000
    C1135   C    0.40710   0.59690   0.78962   1.000
    C1136   C    0.41438   0.58740   0.80659   1.000
    C1137   C    0.43374   0.58455   0.80825   1.000
    C1138   C    0.44133   0.57634   0.82430   1.000
    C1139   C    0.42969   0.57087   0.83910   1.000
    C1140   C    0.41031   0.57369   0.83747   1.000
    C1141   C    0.40272   0.58194   0.82145   1.000
    H1142   H    0.34608   0.60275   0.73628   1.000
    H1143   H    0.35883   0.58695   0.76368   1.000
    H1144   H    0.40273   0.62819   0.76693   1.000
    H1145   H    0.39025   0.64381   0.73963   1.000
    H1146   H    0.37950   0.58708   0.79133   1.000
    H1147   H    0.41715   0.60440   0.78117   1.000
    H1148   H    0.44306   0.58872   0.79709   1.000
    H1149   H    0.45631   0.57423   0.82513   1.000
    H1150   H    0.40105   0.57000   0.84884   1.000
    H1151   H    0.38782   0.58447   0.82107   1.000
    C1152   C    0.14150   0.88802   0.74334   1.000
    C1153   C    0.13422   0.89674   0.75918   1.000
    C1154   C    0.11739   0.89065   0.76713   1.000
    C1155   C    0.10814   0.87529   0.75905   1.000
    C1156   C    0.11543   0.86656   0.74318   1.000
    C1157   C    0.13218   0.87284   0.73506   1.000
    C1158   C    0.11042   0.90031   0.78410   1.000
    C1159   C    0.09258   0.89967   0.78989   1.000
    C1160   C    0.08559   0.90935   0.80686   1.000
    C1161   C    0.06625   0.91210   0.80879   1.000
    C1162   C    0.05892   0.92057   0.82476   1.000
    C1163   C    0.07080   0.92648   0.83922   1.000
    C1164   C    0.09016   0.92382   0.83733   1.000
    C1165   C    0.09750   0.91525   0.82140   1.000
    H1166   H    0.15452   0.89322   0.73773   1.000
    H1167   H    0.14177   0.90838   0.76521   1.000
    H1168   H    0.09546   0.86972   0.76505   1.000
    H1169   H    0.10786   0.85487   0.73734   1.000
    H1170   H    0.12034   0.90893   0.79153   1.000
    H1171   H    0.08233   0.89237   0.78154   1.000
    H1172   H    0.05673   0.90763   0.79790   1.000
    H1173   H    0.04394   0.92254   0.82579   1.000
    H1174   H    0.09962   0.92787   0.84843   1.000
    H1175   H    0.11242   0.91289   0.82087   1.000
    C1176   C    0.11653   0.35874   0.24681   1.000
    C1177   C    0.10793   0.36609   0.26265   1.000
    C1178   C    0.11211   0.38419   0.26885   1.000
    C1179   C    0.12558   0.39467   0.25900   1.000
    C1180   C    0.13423   0.38727   0.24307   1.000
    C1181   C    0.12966   0.36926   0.23668   1.000
    C1182   C    0.10234   0.39113   0.28579   1.000
    C1183   C    0.10124   0.40919   0.29076   1.000
    C1184   C    0.09093   0.41595   0.30751   1.000
    C1185   C    0.08678   0.43511   0.30885   1.000
    C1186   C    0.07760   0.44226   0.32451   1.000
    C1187   C    0.07231   0.43039   0.33924   1.000
    C1188   C    0.07629   0.41121   0.33792   1.000
    C1189   C    0.08562   0.40406   0.32232   1.000
    H1190   H    0.11283   0.34470   0.24265   1.000
    H1191   H    0.09783   0.35758   0.27003   1.000
    H1192   H    0.12968   0.40846   0.26357   1.000
    H1193   H    0.14434   0.39574   0.23569   1.000
    H1194   H    0.09493   0.38076   0.29389   1.000
    H1195   H    0.10744   0.41973   0.28187   1.000
    H1196   H    0.09072   0.44463   0.29775   1.000
    H1197   H    0.07465   0.45711   0.32514   1.000
    H1198   H    0.07275   0.40180   0.34925   1.000
    H1199   H    0.08899   0.38932   0.32232   1.000
    C1200   C    0.64191   0.88913   0.24612   1.000
    C1201   C    0.63459   0.89818   0.26171   1.000
    C1202   C    0.61751   0.89255   0.26944   1.000
    C1203   C    0.60803   0.87732   0.26140   1.000
    C1204   C    0.61536   0.86825   0.24575   1.000
    C1205   C    0.63236   0.87410   0.23784   1.000
    C1206   C    0.61051   0.90260   0.28611   1.000
    C1207   C    0.59256   0.90256   0.29151   1.000
    C1208   C    0.58561   0.91265   0.30821   1.000
    C1209   C    0.56635   0.91615   0.30969   1.000
    C1210   C    0.55904   0.92501   0.32544   1.000
    C1211   C    0.57086   0.93054   0.34009   1.000
    C1212   C    0.59014   0.92719   0.33862   1.000
    C1213   C    0.59745   0.91822   0.32292   1.000
    H1214   H    0.65512   0.89400   0.24068   1.000
    H1215   H    0.64230   0.90974   0.26772   1.000
    H1216   H    0.59513   0.87210   0.26728   1.000
    H1217   H    0.60764   0.85665   0.23992   1.000
    H1218   H    0.62054   0.91105   0.29360   1.000
    H1219   H    0.58224   0.89543   0.28307   1.000
    H1220   H    0.55689   0.91192   0.29866   1.000
    H1221   H    0.54411   0.92748   0.32620   1.000
    H1222   H    0.59950   0.93094   0.34991   1.000
    H1223   H    0.61227   0.91525   0.32274   1.000
    C1224   C    0.60708   0.36332   0.73865   1.000
    C1225   C    0.59779   0.37117   0.75389   1.000
    C1226   C    0.60574   0.38597   0.76393   1.000
    C1227   C    0.62315   0.39306   0.75807   1.000
    C1228   C    0.63247   0.38519   0.74277   1.000
    C1229   C    0.62459   0.37014   0.73291   1.000
    C1230   C    0.59515   0.39374   0.78002   1.000
    C1231   C    0.60300   0.40368   0.79384   1.000
    C1232   C    0.59260   0.41096   0.81029   1.000
    C1233   C    0.60293   0.41673   0.82593   1.000
    C1234   C    0.59399   0.42415   0.84158   1.000
    C1235   C    0.57443   0.42608   0.84199   1.000
    C1236   C    0.56400   0.42018   0.82647   1.000
    C1237   C    0.57296   0.41281   0.81072   1.000
    H1238   H    0.60034   0.35194   0.73138   1.000
    H1239   H    0.58434   0.36553   0.75792   1.000
    H1240   H    0.62956   0.40483   0.76501   1.000
    H1241   H    0.64586   0.39091   0.73875   1.000
    H1242   H    0.58051   0.39013   0.78086   1.000
    H1243   H    0.61795   0.40596   0.79370   1.000
    H1244   H    0.61803   0.41552   0.82605   1.000
    H1245   H    0.60242   0.42834   0.85342   1.000
    H1246   H    0.54893   0.42175   0.82630   1.000
    H1247   H    0.56441   0.40906   0.79885   1.000
    C1248   C    0.25182   0.14080   0.11553   1.000
    C1249   C    0.23599   0.13326   0.10706   1.000
    C1250   C    0.23000   0.11510   0.11138   1.000
    C1251   C    0.24006   0.10475   0.12487   1.000
    C1252   C    0.25601   0.11233   0.13338   1.000
    C1253   C    0.26218   0.13040   0.12868   1.000
    C1254   C    0.21306   0.10797   0.10169   1.000
    C1255   C    0.20802   0.08990   0.10105   1.000
    C1256   C    0.19128   0.08299   0.09078   1.000
    C1257   C    0.18984   0.06375   0.08717   1.000
    C1258   C    0.17423   0.05650   0.07793   1.000
    C1259   C    0.15968   0.06836   0.07203   1.000
    C1260   C    0.16107   0.08760   0.07553   1.000
    C1261   C    0.17659   0.09485   0.08493   1.000
    H1262   H    0.25581   0.15487   0.11172   1.000
    H1263   H    0.22843   0.14167   0.09693   1.000
    H1264   H    0.23569   0.09091   0.12908   1.000
    H1265   H    0.26355   0.10394   0.14350   1.000
    H1266   H    0.20500   0.11819   0.09396   1.000
    H1267   H    0.21682   0.07946   0.10762   1.000
    H1268   H    0.20084   0.05425   0.09155   1.000
    H1269   H    0.17352   0.04159   0.07538   1.000
    H1270   H    0.14984   0.09700   0.07151   1.000
    H1271   H    0.17664   0.10965   0.08789   1.000
    C1272   C    0.25837   0.64138   0.60861   1.000
    C1273   C    0.24288   0.63383   0.59942   1.000
    C1274   C    0.23390   0.61787   0.60644   1.000
    C1275   C    0.24058   0.60977   0.62310   1.000
    C1276   C    0.25605   0.61733   0.63231   1.000
    C1277   C    0.26517   0.63323   0.62520   1.000
    C1278   C    0.21724   0.61062   0.59646   1.000
    C1279   C    0.21121   0.59292   0.59802   1.000
    C1280   C    0.19430   0.58570   0.58842   1.000
    C1281   C    0.19241   0.56631   0.58610   1.000
    C1282   C    0.17640   0.55882   0.57779   1.000
    C1283   C    0.16185   0.57059   0.57170   1.000
    C1284   C    0.16370   0.59001   0.57402   1.000
    C1285   C    0.17969   0.59750   0.58236   1.000
    H1286   H    0.26492   0.65362   0.60265   1.000
    H1287   H    0.23792   0.64046   0.58671   1.000
    H1288   H    0.23368   0.59787   0.62937   1.000
    H1289   H    0.26064   0.61075   0.64515   1.000
    H1290   H    0.21022   0.62013   0.58697   1.000
    H1291   H    0.21929   0.58297   0.60613   1.000
    H1292   H    0.20337   0.55689   0.59075   1.000
    H1293   H    0.17541   0.54381   0.57609   1.000
    H1294   H    0.15252   0.59939   0.56986   1.000
    H1295   H    0.18024   0.61246   0.58447   1.000
    C1296   C    0.75622   0.14110   0.61131   1.000
    C1297   C    0.74082   0.13349   0.60207   1.000
    C1298   C    0.73259   0.11686   0.60838   1.000
    C1299   C    0.74011   0.10801   0.62433   1.000
    C1300   C    0.75557   0.11565   0.63360   1.000
    C1301   C    0.76377   0.13234   0.62724   1.000
    C1302   C    0.71583   0.10982   0.59834   1.000
    C1303   C    0.70955   0.09218   0.59949   1.000
    C1304   C    0.69263   0.08541   0.58950   1.000
    C1305   C    0.69043   0.06610   0.58682   1.000
    C1306   C    0.67440   0.05903   0.57817   1.000
    C1307   C    0.66012   0.07113   0.57207   1.000
    C1308   C    0.66232   0.09047   0.57462   1.000
    C1309   C    0.67833   0.09755   0.58333   1.000
    H1310   H    0.76218   0.15386   0.60582   1.000
    H1311   H    0.73532   0.14066   0.58989   1.000
    H1312   H    0.73390   0.09546   0.63003   1.000
    H1313   H    0.76085   0.10861   0.64593   1.000
    H1314   H    0.70889   0.11958   0.58905   1.000
    H1315   H    0.71740   0.08196   0.60747   1.000
    H1316   H    0.70115   0.05641   0.59149   1.000
    H1317   H    0.67315   0.04406   0.57630   1.000
    H1318   H    0.65137   0.10011   0.57043   1.000
    H1319   H    0.67908   0.11246   0.58565   1.000
    C1320   C    0.76264   0.60731   0.13593   1.000
    C1321   C    0.74792   0.59756   0.12763   1.000
    C1322   C    0.73801   0.60529   0.11256   1.000
    C1323   C    0.74357   0.62284   0.10552   1.000
    C1324   C    0.75833   0.63261   0.11383   1.000
    C1325   C    0.76792   0.62505   0.12926   1.000
    C1326   C    0.72224   0.59449   0.10450   1.000
    C1327   C    0.70822   0.60237   0.09477   1.000
    C1328   C    0.69196   0.59191   0.08725   1.000
    C1329   C    0.67611   0.60214   0.08170   1.000
    C1330   C    0.66055   0.59313   0.07418   1.000
    C1331   C    0.66046   0.57362   0.07194   1.000
    C1332   C    0.67621   0.56328   0.07755   1.000
    C1333   C    0.69188   0.57232   0.08500   1.000
    H1334   H    0.76985   0.60084   0.14757   1.000
    H1335   H    0.74413   0.58397   0.13318   1.000
    H1336   H    0.73675   0.62905   0.09351   1.000
    H1337   H    0.76204   0.64616   0.10823   1.000
    H1338   H    0.72176   0.57973   0.10778   1.000
    H1339   H    0.70802   0.61740   0.09293   1.000
    H1340   H    0.67575   0.61721   0.08322   1.000
    H1341   H    0.64849   0.60145   0.07021   1.000
    H1342   H    0.67657   0.54825   0.07575   1.000
    H1343   H    0.70393   0.56388   0.08856   1.000
    C1344   C    0.25573   0.89003   0.86132   1.000
    C1345   C    0.24014   0.89895   0.86890   1.000
    C1346   C    0.23122   0.89162   0.88471   1.000
    C1347   C    0.23802   0.87490   0.89262   1.000
    C1348   C    0.25363   0.86595   0.88502   1.000
    C1349   C    0.26272   0.87342   0.86930   1.000
    C1350   C    0.21451   0.90142   0.89198   1.000
    C1351   C    0.20841   0.89966   0.90959   1.000
    C1352   C    0.19154   0.90935   0.91668   1.000
    C1353   C    0.18969   0.91205   0.93599   1.000
    C1354   C    0.17373   0.92063   0.94327   1.000
    C1355   C    0.15927   0.92661   0.93136   1.000
    C1356   C    0.16108   0.92388   0.91204   1.000
    C1357   C    0.17698   0.91525   0.90476   1.000
    H1358   H    0.26223   0.89628   0.84921   1.000
    H1359   H    0.23507   0.91171   0.86242   1.000
    H1360   H    0.23116   0.86843   0.90442   1.000
    H1361   H    0.25838   0.85307   0.89144   1.000
    H1362   H    0.20755   0.91106   0.88258   1.000
    H1363   H    0.21640   0.89144   0.91951   1.000
    H1364   H    0.20063   0.90751   0.94547   1.000
    H1365   H    0.17270   0.92262   0.95822   1.000
    H1366   H    0.14992   0.92792   0.90260   1.000
    H1367   H    0.17749   0.91279   0.88988   1.000
    C1368   C    0.26008   0.36196   0.38955   1.000
    C1369   C    0.24479   0.36983   0.39873   1.000
    C1370   C    0.23631   0.38619   0.39201   1.000
    C1371   C    0.24368   0.39474   0.37590   1.000
    C1372   C    0.25905   0.38689   0.36666   1.000
    C1373   C    0.26755   0.37034   0.37333   1.000
    C1374   C    0.22027   0.39406   0.40256   1.000
    C1375   C    0.20749   0.40562   0.39506   1.000
    C1376   C    0.19116   0.41303   0.40551   1.000
    C1377   C    0.17564   0.41946   0.39533   1.000
    C1378   C    0.16008   0.42689   0.40445   1.000
    C1379   C    0.15972   0.42826   0.42403   1.000
    C1380   C    0.17522   0.42180   0.43429   1.000
    C1381   C    0.19083   0.41435   0.42515   1.000
    H1382   H    0.26593   0.34930   0.39541   1.000
    H1383   H    0.23949   0.36300   0.41117   1.000
    H1384   H    0.23792   0.40768   0.37054   1.000
    H1385   H    0.26424   0.39400   0.35439   1.000
    H1386   H    0.21848   0.38921   0.41677   1.000
    H1387   H    0.20833   0.40912   0.38038   1.000
    H1388   H    0.17550   0.41866   0.38022   1.000
    H1389   H    0.14825   0.43149   0.39615   1.000
    H1390   H    0.17545   0.42293   0.44937   1.000
    H1391   H    0.20271   0.41011   0.43352   1.000
    C1392   C    0.75424   0.88943   0.35887   1.000
    C1393   C    0.73853   0.89829   0.36627   1.000
    C1394   C    0.73087   0.89238   0.38328   1.000
    C1395   C    0.73902   0.87699   0.39256   1.000
    C1396   C    0.75479   0.86812   0.38516   1.000
    C1397   C    0.76267   0.87430   0.36827   1.000
    C1398   C    0.71415   0.90229   0.39046   1.000
    C1399   C    0.70888   0.90201   0.40842   1.000
    C1400   C    0.69225   0.91213   0.41558   1.000
    C1401   C    0.69096   0.91551   0.43484   1.000
    C1402   C    0.67530   0.92446   0.44230   1.000
    C1403   C    0.66056   0.93023   0.43064   1.000
    C1404   C    0.66182   0.92695   0.41136   1.000
    C1405   C    0.67742   0.91789   0.40390   1.000
    H1406   H    0.75964   0.89450   0.34571   1.000
    H1407   H    0.73239   0.90994   0.35870   1.000
    H1408   H    0.73318   0.87153   0.40537   1.000
    H1409   H    0.76074   0.85643   0.39275   1.000
    H1410   H    0.70654   0.91087   0.38057   1.000
    H1411   H    0.71747   0.89478   0.41860   1.000
    H1412   H    0.70210   0.91115   0.44418   1.000
    H1413   H    0.67467   0.92686   0.45722   1.000
    H1414   H    0.65045   0.93086   0.40212   1.000
    H1415   H    0.67745   0.91502   0.38910   1.000
    C1416   C    0.75716   0.39172   0.86132   1.000
    C1417   C    0.74194   0.40087   0.86940   1.000
    C1418   C    0.73413   0.39430   0.88610   1.000
    C1419   C    0.74216   0.37855   0.89483   1.000
    C1420   C    0.75741   0.36939   0.88676   1.000
    C1421   C    0.76509   0.37582   0.86986   1.000
    C1422   C    0.71812   0.40462   0.89424   1.000
    C1423   C    0.70580   0.39679   0.90597   1.000
    C1424   C    0.68954   0.40692   0.91384   1.000
    C1425   C    0.67428   0.39647   0.92028   1.000
    C1426   C    0.65876   0.40534   0.92807   1.000
    C1427   C    0.65822   0.42492   0.92976   1.000
    C1428   C    0.67353   0.43543   0.92344   1.000
    C1429   C    0.68909   0.42654   0.91564   1.000
    H1430   H    0.76258   0.39718   0.84833   1.000
    H1431   H    0.73614   0.41307   0.86247   1.000
    H1432   H    0.73698   0.37341   0.90806   1.000
    H1433   H    0.76320   0.35736   0.89391   1.000
    H1434   H    0.71594   0.41884   0.88951   1.000
    H1435   H    0.70698   0.38206   0.90929   1.000
    H1436   H    0.67429   0.38136   0.91914   1.000
    H1437   H    0.64706   0.39688   0.93257   1.000
    H1438   H    0.67360   0.45050   0.92485   1.000
    H1439   H    0.70082   0.43507   0.91143   1.000
    C1440   C    0.73967   0.89254   0.13557   1.000
    C1441   C    0.75473   0.90188   0.12747   1.000
    C1442   C    0.76423   0.89418   0.11222   1.000
    C1443   C    0.75802   0.87698   0.10494   1.000
    C1444   C    0.74290   0.86759   0.11308   1.000
    C1445   C    0.73357   0.87523   0.12855   1.000
    C1446   C    0.78009   0.90486   0.10418   1.000
    C1447   C    0.79348   0.89721   0.09357   1.000
    C1448   C    0.80968   0.90779   0.08607   1.000
    C1449   C    0.82540   0.89769   0.08011   1.000
    C1450   C    0.84085   0.90690   0.07258   1.000
    C1451   C    0.84091   0.92647   0.07071   1.000
    C1452   C    0.82527   0.93667   0.07675   1.000
    C1453   C    0.80974   0.92744   0.08423   1.000
    H1454   H    0.73280   0.89910   0.14728   1.000
    H1455   H    0.75904   0.91518   0.13326   1.000
    H1456   H    0.76456   0.87078   0.09284   1.000
    H1457   H    0.73859   0.85436   0.10721   1.000
    H1458   H    0.78118   0.91940   0.10813   1.000
    H1459   H    0.79325   0.88232   0.09099   1.000
    H1460   H    0.82577   0.88258   0.08131   1.000
    H1461   H    0.85282   0.89869   0.06825   1.000
    H1462   H    0.82485   0.95174   0.07523   1.000
    H1463   H    0.79775   0.93578   0.08809   1.000
    C1464   C    0.73773   0.36577   0.60785   1.000
    C1465   C    0.75282   0.37373   0.59848   1.000
    C1466   C    0.76335   0.38801   0.60672   1.000
    C1467   C    0.75810   0.39451   0.62454   1.000
    C1468   C    0.74290   0.38650   0.63397   1.000
    C1469   C    0.73263   0.37191   0.62579   1.000
    C1470   C    0.77934   0.39575   0.59599   1.000
    C1471   C    0.79354   0.40527   0.60368   1.000
    C1472   C    0.80996   0.41221   0.59300   1.000
    C1473   C    0.82600   0.41742   0.60302   1.000
    C1474   C    0.84168   0.42443   0.59379   1.000
    C1475   C    0.84171   0.42648   0.57427   1.000
    C1476   C    0.82580   0.42111   0.56413   1.000
    C1477   C    0.81002   0.41418   0.57338   1.000
    H1478   H    0.73006   0.35483   0.60084   1.000
    H1479   H    0.75637   0.36857   0.58472   1.000
    H1480   H    0.76546   0.40588   0.63120   1.000
    H1481   H    0.73933   0.39166   0.64769   1.000
    H1482   H    0.77982   0.39237   0.58129   1.000
    H1483   H    0.79377   0.40735   0.61863   1.000
    H1484   H    0.82642   0.41609   0.61809   1.000
    H1485   H    0.85384   0.42827   0.60196   1.000
    H1486   H    0.82538   0.42280   0.54910   1.000
    H1487   H    0.79785   0.41088   0.56506   1.000
    C1488   C    0.24628   0.85794   0.61300   1.000
    C1489   C    0.26206   0.86514   0.60417   1.000
    C1490   C    0.26914   0.88271   0.60909   1.000
    C1491   C    0.26031   0.89279   0.62348   1.000
    C1492   C    0.24445   0.88557   0.63233   1.000
    C1493   C    0.23715   0.86811   0.62709   1.000
    C1494   C    0.28595   0.88960   0.59917   1.000
    C1495   C    0.29098   0.90764   0.59844   1.000
    C1496   C    0.30768   0.91448   0.58824   1.000
    C1497   C    0.30901   0.93368   0.58430   1.000
    C1498   C    0.32475   0.94091   0.57533   1.000
    C1499   C    0.33950   0.92907   0.57007   1.000
    C1500   C    0.33816   0.90985   0.57381   1.000
    C1501   C    0.32251   0.90262   0.58292   1.000
    H1502   H    0.24137   0.84433   0.60870   1.000
    H1503   H    0.26871   0.85696   0.59332   1.000
    H1504   H    0.26567   0.90610   0.62817   1.000
    H1505   H    0.23791   0.89376   0.64319   1.000
    H1506   H    0.29381   0.87933   0.59139   1.000
    H1507   H    0.28219   0.91808   0.60492   1.000
    H1508   H    0.29789   0.94316   0.58829   1.000
    H1509   H    0.32546   0.95580   0.57259   1.000
    H1510   H    0.34955   0.90050   0.57028   1.000
    H1511   H    0.32248   0.88786   0.58619   1.000
    C1512   C    0.24433   0.35964   0.11281   1.000
    C1513   C    0.26026   0.36711   0.10435   1.000
    C1514   C    0.26767   0.38429   0.11020   1.000
    C1515   C    0.25889   0.39369   0.12507   1.000
    C1516   C    0.24291   0.38620   0.13356   1.000
    C1517   C    0.23536   0.36909   0.12750   1.000
    C1518   C    0.28478   0.39141   0.10075   1.000
    C1519   C    0.29053   0.40929   0.10133   1.000
    C1520   C    0.30753   0.41639   0.09162   1.000
    C1521   C    0.30944   0.43577   0.08897   1.000
    C1522   C    0.32534   0.44319   0.08036   1.000
    C1523   C    0.33980   0.43139   0.07420   1.000
    C1524   C    0.33794   0.41199   0.07682   1.000
    C1525   C    0.32207   0.40456   0.08550   1.000
    H1526   H    0.23920   0.34636   0.10779   1.000
    H1527   H    0.26679   0.35942   0.09309   1.000
    H1528   H    0.26439   0.40668   0.13045   1.000
    H1529   H    0.23651   0.39388   0.14486   1.000
    H1530   H    0.29237   0.38150   0.09227   1.000
    H1531   H    0.28209   0.41953   0.10857   1.000
    H1532   H    0.29857   0.44525   0.09358   1.000
    H1533   H    0.32630   0.45818   0.07845   1.000
    H1534   H    0.34901   0.40257   0.07259   1.000
    H1535   H    0.32158   0.38962   0.08774   1.000
    C1536   C    0.74302   0.14068   0.88767   1.000
    C1537   C    0.75871   0.13308   0.89652   1.000
    C1538   C    0.76709   0.11666   0.88985   1.000
    C1539   C    0.75948   0.10807   0.87388   1.000
    C1540   C    0.74373   0.11571   0.86499   1.000
    C1541   C    0.73530   0.13214   0.87174   1.000
    C1542   C    0.78408   0.10957   0.89956   1.000
    C1543   C    0.79045   0.09194   0.89823   1.000
    C1544   C    0.80749   0.08506   0.90804   1.000
    C1545   C    0.80974   0.06572   0.91072   1.000
    C1546   C    0.82580   0.05857   0.91936   1.000
    C1547   C    0.84006   0.07061   0.92545   1.000
    C1548   C    0.83783   0.08997   0.92283   1.000
    C1549   C    0.82180   0.09713   0.91414   1.000
    H1550   H    0.73705   0.15331   0.89341   1.000
    H1551   H    0.76432   0.14008   0.90869   1.000
    H1552   H    0.76580   0.09571   0.86793   1.000
    H1553   H    0.73836   0.10878   0.85270   1.000
    H1554   H    0.79108   0.11921   0.90884   1.000
    H1555   H    0.78256   0.08181   0.89028   1.000
    H1556   H    0.79903   0.05609   0.90610   1.000
    H1557   H    0.82708   0.04359   0.92128   1.000
    H1558   H    0.84876   0.09956   0.92699   1.000
    H1559   H    0.82101   0.11205   0.91179   1.000
    C1560   C    0.73935   0.60831   0.36271   1.000
    C1561   C    0.75476   0.59899   0.37034   1.000
    C1562   C    0.76439   0.60642   0.38568   1.000
    C1563   C    0.75801   0.62333   0.39348   1.000
    C1564   C    0.74257   0.63268   0.38583   1.000
    C1565   C    0.73304   0.62532   0.37032   1.000
    C1566   C    0.78054   0.59580   0.39337   1.000
    C1567   C    0.79400   0.60354   0.40386   1.000
    C1568   C    0.81032   0.59309   0.41145   1.000
    C1569   C    0.82585   0.60335   0.41761   1.000
    C1570   C    0.84136   0.59431   0.42536   1.000
    C1571   C    0.84169   0.57475   0.42724   1.000
    C1572   C    0.82625   0.56439   0.42100   1.000
    C1573   C    0.81065   0.57345   0.41330   1.000
    H1574   H    0.73240   0.60202   0.35089   1.000
    H1575   H    0.75922   0.58591   0.36416   1.000
    H1576   H    0.76461   0.62927   0.40569   1.000
    H1577   H    0.73814   0.64565   0.39218   1.000
    H1578   H    0.78169   0.58126   0.38938   1.000
    H1579   H    0.79363   0.61844   0.40647   1.000
    H1580   H    0.82599   0.61846   0.41642   1.000
    H1581   H    0.85317   0.60265   0.42980   1.000
    H1582   H    0.82606   0.54932   0.42251   1.000
    H1583   H    0.79881   0.56500   0.40927   1.000
    C1584   C    0.23971   0.10839   0.35948   1.000
    C1585   C    0.25474   0.09880   0.36755   1.000
    C1586   C    0.26351   0.10561   0.38368   1.000
    C1587   C    0.25660   0.12214   0.39183   1.000
    C1588   C    0.24153   0.13175   0.38375   1.000
    C1589   C    0.23290   0.12504   0.36742   1.000
    C1590   C    0.27940   0.09481   0.39173   1.000
    C1591   C    0.29240   0.10232   0.40296   1.000
    C1592   C    0.30864   0.09180   0.41067   1.000
    C1593   C    0.32394   0.10202   0.41745   1.000
    C1594   C    0.33940   0.09291   0.42522   1.000
    C1595   C    0.33993   0.07329   0.42653   1.000
    C1596   C    0.32469   0.06299   0.41972   1.000
    C1597   C    0.30914   0.07212   0.41196   1.000
    H1598   H    0.23351   0.10264   0.34697   1.000
    H1599   H    0.25964   0.08603   0.36105   1.000
    H1600   H    0.26251   0.12758   0.40461   1.000
    H1601   H    0.23663   0.14438   0.39044   1.000
    H1602   H    0.28086   0.08044   0.38730   1.000
    H1603   H    0.29177   0.11712   0.40603   1.000
    H1604   H    0.32395   0.11716   0.41670   1.000
    H1605   H    0.35105   0.10124   0.43010   1.000
    H1606   H    0.32461   0.04788   0.42079   1.000
    H1607   H    0.29747   0.06369   0.40744   1.000
    C1608   C    0.24460   0.60980   0.86035   1.000
    C1609   C    0.26037   0.60103   0.86788   1.000
    C1610   C    0.26927   0.60835   0.88370   1.000
    C1611   C    0.26230   0.62493   0.89164   1.000
    C1612   C    0.24651   0.63372   0.88410   1.000
    C1613   C    0.23741   0.62623   0.86839   1.000
    C1614   C    0.28611   0.59867   0.89099   1.000
    C1615   C    0.29221   0.60034   0.90862   1.000
    C1616   C    0.30907   0.59063   0.91585   1.000
    C1617   C    0.31103   0.58816   0.93521   1.000
    C1618   C    0.32696   0.57955   0.94263   1.000
    C1619   C    0.34129   0.57328   0.93081   1.000
    C1620   C    0.33939   0.57577   0.91145   1.000
    C1621   C    0.32352   0.58445   0.90403   1.000
    H1622   H    0.23812   0.60356   0.84823   1.000
    H1623   H    0.26558   0.58841   0.86136   1.000
    H1624   H    0.26915   0.63142   0.90342   1.000
    H1625   H    0.24160   0.64645   0.89057   1.000
    H1626   H    0.29308   0.58908   0.88162   1.000
    H1627   H    0.28419   0.60851   0.91849   1.000
    H1628   H    0.30018   0.59289   0.94463   1.000
    H1629   H    0.32808   0.57776   0.95761   1.000
    H1630   H    0.35045   0.57149   0.90206   1.000
    H1631   H    0.32294   0.58668   0.88910   1.000
    C1632   C    0.10761   0.25900   0.13623   1.000
    C1633   C    0.09834   0.24377   0.12834   1.000
    C1634   C    0.10582   0.23443   0.11287   1.000
    C1635   C    0.12274   0.24093   0.10520   1.000
    C1636   C    0.13204   0.25620   0.11311   1.000
    C1637   C    0.12462   0.26543   0.12877   1.000
    C1638   C    0.09525   0.21842   0.10496   1.000
    C1639   C    0.10303   0.20510   0.09431   1.000
    C1640   C    0.09260   0.18884   0.08672   1.000
    C1641   C    0.10284   0.17320   0.08078   1.000
    C1642   C    0.09381   0.15771   0.07314   1.000
    C1643   C    0.07425   0.15751   0.07113   1.000
    C1644   C    0.06392   0.17310   0.07711   1.000
    C1645   C    0.07298   0.18867   0.08472   1.000
    H1646   H    0.10126   0.26571   0.14814   1.000
    H1647   H    0.08527   0.23920   0.13444   1.000
    H1648   H    0.12873   0.23454   0.09292   1.000
    H1649   H    0.14501   0.26074   0.10687   1.000
    H1650   H    0.08074   0.21719   0.10897   1.000
    H1651   H    0.11791   0.20549   0.09168   1.000
    H1652   H    0.11794   0.17293   0.08210   1.000
    H1653   H    0.10214   0.14579   0.06890   1.000
    H1654   H    0.04887   0.17343   0.07548   1.000
    H1655   H    0.06456   0.20061   0.08857   1.000
    C1656   C    0.14120   0.75320   0.61603   1.000
    C1657   C    0.13391   0.73735   0.60743   1.000
    C1658   C    0.11594   0.73095   0.61180   1.000
    C1659   C    0.10552   0.74057   0.62544   1.000
    C1660   C    0.11285   0.75653   0.63407   1.000
    C1661   C    0.13073   0.76312   0.62933   1.000
    C1662   C    0.10908   0.71401   0.60204   1.000
    C1663   C    0.09108   0.70883   0.60123   1.000
    C1664   C    0.08447   0.69204   0.59097   1.000
    C1665   C    0.06534   0.69056   0.58679   1.000
    C1666   C    0.05836   0.67482   0.57760   1.000
    C1667   C    0.07040   0.66022   0.57235   1.000
    C1668   C    0.08954   0.66168   0.57639   1.000
    C1669   C    0.09650   0.67732   0.58573   1.000
    H1670   H    0.15516   0.75751   0.61222   1.000
    H1671   H    0.14237   0.73011   0.59719   1.000
    H1672   H    0.09183   0.73582   0.62968   1.000
    H1673   H    0.10443   0.76375   0.64432   1.000
    H1674   H    0.11941   0.70609   0.59440   1.000
    H1675   H    0.08051   0.71755   0.60760   1.000
    H1676   H    0.05572   0.70159   0.59071   1.000
    H1677   H    0.04353   0.67403   0.57464   1.000
    H1678   H    0.09903   0.65040   0.57287   1.000
    H1679   H    0.11121   0.67742   0.58919   1.000
    C1680   C    0.64078   0.25301   0.61327   1.000
    C1681   C    0.63313   0.23747   0.60436   1.000
    C1682   C    0.61579   0.23026   0.60990   1.000
    C1683   C    0.60640   0.23872   0.62495   1.000
    C1684   C    0.61405   0.25433   0.63387   1.000
    C1685   C    0.63129   0.26175   0.62807   1.000
    C1686   C    0.60843   0.21364   0.59999   1.000
    C1687   C    0.59039   0.20851   0.60015   1.000
    C1688   C    0.58314   0.19185   0.59018   1.000
    C1689   C    0.56384   0.19061   0.58677   1.000
    C1690   C    0.55629   0.17492   0.57795   1.000
    C1691   C    0.56791   0.16013   0.57235   1.000
    C1692   C    0.58722   0.16133   0.57569   1.000
    C1693   C    0.59476   0.17694   0.58461   1.000
    H1694   H    0.65417   0.25805   0.60849   1.000
    H1695   H    0.64079   0.23110   0.59298   1.000
    H1696   H    0.59331   0.23326   0.63012   1.000
    H1697   H    0.60636   0.26053   0.64528   1.000
    H1698   H    0.61829   0.20592   0.59155   1.000
    H1699   H    0.58024   0.21718   0.60723   1.000
    H1700   H    0.55454   0.20180   0.59099   1.000
    H1701   H    0.54135   0.17435   0.57550   1.000
    H1702   H    0.59643   0.14992   0.57190   1.000
    H1703   H    0.60959   0.17691   0.58752   1.000
    C1704   C    0.60892   0.76070   0.13843   1.000
    C1705   C    0.59976   0.74541   0.13049   1.000
    C1706   C    0.60718   0.73633   0.11483   1.000
    C1707   C    0.62390   0.74314   0.10703   1.000
    C1708   C    0.63309   0.75846   0.11499   1.000
    C1709   C    0.62574   0.76744   0.13082   1.000
    C1710   C    0.59672   0.72027   0.10685   1.000
    C1711   C    0.60448   0.70728   0.09579   1.000
    C1712   C    0.59416   0.69100   0.08808   1.000
    C1713   C    0.60452   0.67565   0.08157   1.000
    C1714   C    0.59556   0.66013   0.07388   1.000
    C1715   C    0.57597   0.65961   0.07239   1.000
    C1716   C    0.56554   0.67493   0.07886   1.000
    C1717   C    0.57451   0.69052   0.08652   1.000
    H1718   H    0.60263   0.76721   0.15049   1.000
    H1719   H    0.58682   0.74060   0.13670   1.000
    H1720   H    0.62985   0.73697   0.09462   1.000
    H1721   H    0.64593   0.76322   0.10863   1.000
    H1722   H    0.58231   0.71875   0.11109   1.000
    H1723   H    0.61929   0.70793   0.09287   1.000
    H1724   H    0.61964   0.67562   0.08252   1.000
    H1725   H    0.60398   0.64843   0.06926   1.000
    H1726   H    0.55044   0.67502   0.07764   1.000
    H1727   H    0.56598   0.70224   0.09079   1.000
    C1728   C    0.85890   0.25625   0.88563   1.000
    C1729   C    0.86633   0.24033   0.89425   1.000
    C1730   C    0.88348   0.23281   0.88846   1.000
    C1731   C    0.89291   0.24141   0.87349   1.000
    C1732   C    0.88547   0.25739   0.86485   1.000
    C1733   C    0.86839   0.26507   0.87086   1.000
    C1734   C    0.89059   0.21578   0.89809   1.000
    C1735   C    0.90852   0.21016   0.89772   1.000
    C1736   C    0.91558   0.19321   0.90758   1.000
    C1737   C    0.93490   0.19147   0.91069   1.000
    C1738   C    0.94228   0.17559   0.91947   1.000
    C1739   C    0.93049   0.16103   0.92533   1.000
    C1740   C    0.91115   0.16273   0.92226   1.000
    C1741   C    0.90377   0.17856   0.91338   1.000
    H1742   H    0.84564   0.26149   0.89061   1.000
    H1743   H    0.85863   0.23390   0.90558   1.000
    H1744   H    0.90586   0.23576   0.86814   1.000
    H1745   H    0.89317   0.26365   0.85347   1.000
    H1746   H    0.88065   0.20817   0.90654   1.000
    H1747   H    0.91877   0.21865   0.89057   1.000
    H1748   H    0.94435   0.20244   0.90629   1.000
    H1749   H    0.95724   0.17470   0.92172   1.000
    H1750   H    0.90177   0.15154   0.92625   1.000
    H1751   H    0.88889   0.17892   0.91073   1.000
    C1752   C    0.85753   0.75610   0.38619   1.000
    C1753   C    0.86477   0.74026   0.39509   1.000
    C1754   C    0.88229   0.73301   0.39013   1.000
    C1755   C    0.89230   0.74181   0.37563   1.000
    C1756   C    0.88504   0.75773   0.36670   1.000
    C1757   C    0.86759   0.76515   0.37194   1.000
    C1758   C    0.88916   0.71607   0.40012   1.000
    C1759   C    0.90713   0.71060   0.40058   1.000
    C1760   C    0.91395   0.69381   0.41092   1.000
    C1761   C    0.93320   0.69216   0.41450   1.000
    C1762   C    0.94043   0.67640   0.42361   1.000
    C1763   C    0.92856   0.66185   0.42936   1.000
    C1764   C    0.90929   0.66351   0.42596   1.000
    C1765   C    0.90205   0.67923   0.41674   1.000
    H1766   H    0.84395   0.76109   0.39053   1.000
    H1767   H    0.85662   0.73368   0.40602   1.000
    H1768   H    0.90558   0.73638   0.37091   1.000
    H1769   H    0.89316   0.76418   0.35572   1.000
    H1770   H    0.87893   0.70841   0.40817   1.000
    H1771   H    0.91758   0.71911   0.39376   1.000
    H1772   H    0.94273   0.70308   0.41015   1.000
    H1773   H    0.95535   0.67554   0.42611   1.000
    H1774   H    0.89987   0.65233   0.42988   1.000
    H1775   H    0.88722   0.67952   0.41381   1.000
    C1776   C    0.39192   0.25845   0.36196   1.000
    C1777   C    0.40127   0.24332   0.37006   1.000
    C1778   C    0.39426   0.23470   0.38618   1.000
    C1779   C    0.37783   0.24183   0.39431   1.000
    C1780   C    0.36845   0.25697   0.38619   1.000
    C1781   C    0.37535   0.26547   0.36988   1.000
    C1782   C    0.40470   0.21869   0.39425   1.000
    C1783   C    0.39677   0.20575   0.40523   1.000
    C1784   C    0.40696   0.18942   0.41298   1.000
    C1785   C    0.39654   0.17391   0.41890   1.000
    C1786   C    0.40542   0.15829   0.42657   1.000
    C1787   C    0.42495   0.15788   0.42862   1.000
    C1788   C    0.43545   0.17336   0.42274   1.000
    C1789   C    0.42655   0.18906   0.41510   1.000
    H1790   H    0.39784   0.26461   0.34951   1.000
    H1791   H    0.41399   0.23823   0.36363   1.000
    H1792   H    0.37229   0.23601   0.40711   1.000
    H1793   H    0.35585   0.26200   0.39282   1.000
    H1794   H    0.41913   0.21705   0.39006   1.000
    H1795   H    0.38191   0.20646   0.40795   1.000
    H1796   H    0.38145   0.17384   0.41749   1.000
    H1797   H    0.39700   0.14644   0.43077   1.000
    H1798   H    0.45050   0.17348   0.42442   1.000
    H1799   H    0.43507   0.20094   0.41129   1.000
    C1800   C    0.35975   0.75647   0.88870   1.000
    C1801   C    0.36741   0.74068   0.89735   1.000
    C1802   C    0.38421   0.73288   0.89097   1.000
    C1803   C    0.39305   0.74103   0.87540   1.000
    C1804   C    0.38539   0.75686   0.86674   1.000
    C1805   C    0.36866   0.76484   0.87331   1.000
    C1806   C    0.39158   0.71599   0.90061   1.000
    C1807   C    0.40943   0.71024   0.89957   1.000
    C1808   C    0.41672   0.69339   0.90936   1.000
    C1809   C    0.43612   0.69158   0.91187   1.000
    C1810   C    0.44368   0.67575   0.92058   1.000
    C1811   C    0.43197   0.66136   0.92697   1.000
    C1812   C    0.41257   0.66311   0.92448   1.000
    C1813   C    0.40501   0.67887   0.91567   1.000
    H1814   H    0.34680   0.76198   0.89417   1.000
    H1815   H    0.36018   0.73459   0.90916   1.000
    H1816   H    0.40569   0.73512   0.86961   1.000
    H1817   H    0.39263   0.76274   0.85486   1.000
    H1818   H    0.38195   0.70861   0.90959   1.000
    H1819   H    0.41944   0.71855   0.89190   1.000
    H1820   H    0.44548   0.70246   0.90707   1.000
    H1821   H    0.45869   0.67477   0.92237   1.000
    H1822   H    0.40326   0.65202   0.92888   1.000
    H1823   H    0.39006   0.67929   0.91346   1.000
    C1824   C    0.14217   0.74400   0.88627   1.000
    C1825   C    0.13474   0.75964   0.89522   1.000
    C1826   C    0.11702   0.76657   0.89036   1.000
    C1827   C    0.10702   0.75768   0.87594   1.000
    C1828   C    0.11446   0.74196   0.86697   1.000
    C1829   C    0.13209   0.73484   0.87212   1.000
    C1830   C    0.10993   0.78331   0.90035   1.000
    C1831   C    0.09186   0.78842   0.90082   1.000
    C1832   C    0.08480   0.80510   0.91100   1.000
    C1833   C    0.06551   0.80659   0.91429   1.000
    C1834   C    0.05807   0.82229   0.92321   1.000
    C1835   C    0.06979   0.83687   0.92908   1.000
    C1836   C    0.08910   0.83540   0.92594   1.000
    C1837   C    0.09654   0.81978   0.91689   1.000
    H1838   H    0.15590   0.73923   0.89049   1.000
    H1839   H    0.14288   0.76633   0.90608   1.000
    H1840   H    0.09359   0.76288   0.87128   1.000
    H1841   H    0.10632   0.73539   0.85608   1.000
    H1842   H    0.12008   0.79111   0.90835   1.000
    H1843   H    0.08152   0.77975   0.89405   1.000
    H1844   H    0.05611   0.79559   0.90987   1.000
    H1845   H    0.04312   0.82306   0.92550   1.000
    H1846   H    0.09840   0.84664   0.92997   1.000
    H1847   H    0.11139   0.81964   0.91417   1.000
    C1848   C    0.10544   0.23471   0.36853   1.000
    C1849   C    0.09658   0.25029   0.37621   1.000
    C1850   C    0.10620   0.26236   0.38823   1.000
    C1851   C    0.12499   0.25828   0.39267   1.000
    C1852   C    0.13391   0.24265   0.38493   1.000
    C1853   C    0.12426   0.23067   0.37273   1.000
    C1854   C    0.09583   0.27859   0.39606   1.000
    C1855   C    0.10402   0.29345   0.40403   1.000
    C1856   C    0.09370   0.30983   0.41167   1.000
    C1857   C    0.10407   0.32563   0.41693   1.000
    C1858   C    0.09526   0.34127   0.42458   1.000
    C1859   C    0.07580   0.34154   0.42716   1.000
    C1860   C    0.06531   0.32589   0.42179   1.000
    C1861   C    0.07413   0.31013   0.41426   1.000
    H1862   H    0.09739   0.22592   0.35930   1.000
    H1863   H    0.08208   0.25295   0.37264   1.000
    H1864   H    0.13286   0.26683   0.40229   1.000
    H1865   H    0.14833   0.23998   0.38864   1.000
    H1866   H    0.08083   0.27838   0.39438   1.000
    H1867   H    0.11911   0.29414   0.40455   1.000
    H1868   H    0.11911   0.32588   0.41515   1.000
    H1869   H    0.10368   0.35324   0.42840   1.000
    H1870   H    0.05031   0.32567   0.42383   1.000
    H1871   H    0.06548   0.29826   0.41087   1.000
    C1872   C    0.60830   0.74012   0.36624   1.000
    C1873   C    0.59893   0.75510   0.37443   1.000
    C1874   C    0.60707   0.76506   0.38916   1.000
    C1875   C    0.62473   0.75937   0.39588   1.000
    C1876   C    0.63415   0.74432   0.38764   1.000
    C1877   C    0.62609   0.73459   0.37263   1.000
    C1878   C    0.59642   0.78095   0.39714   1.000
    C1879   C    0.60424   0.79475   0.40705   1.000
    C1880   C    0.59369   0.81111   0.41423   1.000
    C1881   C    0.60379   0.82705   0.41950   1.000
    C1882   C    0.59462   0.84272   0.42661   1.000
    C1883   C    0.57510   0.84280   0.42868   1.000
    C1884   C    0.56489   0.82696   0.42334   1.000
    C1885   C    0.57407   0.81119   0.41633   1.000
    H1886   H    0.60138   0.73286   0.35497   1.000
    H1887   H    0.58527   0.75901   0.36911   1.000
    H1888   H    0.63127   0.76626   0.40761   1.000
    H1889   H    0.64777   0.74041   0.39301   1.000
    H1890   H    0.58173   0.78174   0.39360   1.000
    H1891   H    0.61922   0.79476   0.40923   1.000
    H1892   H    0.61886   0.82740   0.41807   1.000
    H1893   H    0.60282   0.85484   0.43045   1.000
    H1894   H    0.54985   0.82661   0.42507   1.000
    H1895   H    0.56573   0.79906   0.41301   1.000
    C1896   C    0.60505   0.23597   0.86976   1.000
    C1897   C    0.59546   0.25060   0.87834   1.000
    C1898   C    0.60483   0.26300   0.89020   1.000
    C1899   C    0.62401   0.26018   0.89372   1.000
    C1900   C    0.63363   0.24547   0.88515   1.000
    C1901   C    0.62428   0.23326   0.87296   1.000
    C1902   C    0.59397   0.27830   0.89891   1.000
    C1903   C    0.60162   0.29459   0.90407   1.000
    C1904   C    0.59106   0.31042   0.91241   1.000
    C1905   C    0.60130   0.32578   0.91900   1.000
    C1906   C    0.59225   0.34107   0.92701   1.000
    C1907   C    0.57269   0.34141   0.92861   1.000
    C1908   C    0.56234   0.32623   0.92183   1.000
    C1909   C    0.57138   0.31087   0.91382   1.000
    H1910   H    0.59722   0.22677   0.86071   1.000
    H1911   H    0.58066   0.25235   0.87554   1.000
    H1912   H    0.63159   0.26909   0.90328   1.000
    H1913   H    0.64839   0.24378   0.88805   1.000
    H1914   H    0.57913   0.27604   0.90031   1.000
    H1915   H    0.61645   0.29668   0.90194   1.000
    H1916   H    0.61641   0.32596   0.91798   1.000
    H1917   H    0.60058   0.35276   0.93180   1.000
    H1918   H    0.54724   0.32614   0.92294   1.000
    H1919   H    0.56274   0.29962   0.90875   1.000
    C1920   C    0.89280   0.73791   0.13575   1.000
    C1921   C    0.90192   0.75316   0.12767   1.000
    C1922   C    0.89375   0.76306   0.11281   1.000
    C1923   C    0.87633   0.75706   0.10589   1.000
    C1924   C    0.86717   0.74180   0.11400   1.000
    C1925   C    0.87523   0.73207   0.12911   1.000
    C1926   C    0.90408   0.77918   0.10477   1.000
    C1927   C    0.89595   0.79280   0.09467   1.000
    C1928   C    0.90610   0.80918   0.08691   1.000
    C1929   C    0.89560   0.82469   0.08089   1.000
    C1930   C    0.90437   0.84032   0.07316   1.000
    C1931   C    0.92391   0.84081   0.07123   1.000
    C1932   C    0.93449   0.82536   0.07724   1.000
    C1933   C    0.92571   0.80964   0.08488   1.000
    H1934   H    0.89963   0.73080   0.14723   1.000
    H1935   H    0.91541   0.75732   0.13316   1.000
    H1936   H    0.86978   0.76384   0.09404   1.000
    H1937   H    0.85378   0.73768   0.10833   1.000
    H1938   H    0.91876   0.78017   0.10823   1.000
    H1939   H    0.88097   0.79256   0.09258   1.000
    H1940   H    0.88051   0.82475   0.08221   1.000
    H1941   H    0.89587   0.85213   0.06886   1.000
    H1942   H    0.94955   0.82529   0.07567   1.000
    H1943   H    0.93437   0.79785   0.08877   1.000
    C1944   C    0.85731   0.24674   0.61270   1.000
    C1945   C    0.86486   0.26229   0.60362   1.000
    C1946   C    0.88263   0.26902   0.60844   1.000
    C1947   C    0.89260   0.26000   0.62288   1.000
    C1948   C    0.88506   0.24439   0.63193   1.000
    C1949   C    0.86735   0.23754   0.62692   1.000
    C1950   C    0.88985   0.28574   0.59847   1.000
    C1951   C    0.90797   0.29061   0.59805   1.000
    C1952   C    0.91517   0.30739   0.58814   1.000
    C1953   C    0.93443   0.30858   0.58456   1.000
    C1954   C    0.94197   0.32433   0.57579   1.000
    C1955   C    0.93037   0.33927   0.57038   1.000
    C1956   C    0.91110   0.33814   0.57390   1.000
    C1957   C    0.90357   0.32246   0.58279   1.000
    H1958   H    0.84367   0.24187   0.60837   1.000
    H1959   H    0.85679   0.26904   0.59268   1.000
    H1960   H    0.90604   0.26507   0.62754   1.000
    H1961   H    0.89306   0.23788   0.64303   1.000
    H1962   H    0.87976   0.29380   0.59056   1.000
    H1963   H    0.91825   0.28164   0.60465   1.000
    H1964   H    0.94372   0.29728   0.58862   1.000
    H1965   H    0.95687   0.32483   0.57321   1.000
    H1966   H    0.90191   0.34965   0.57025   1.000
    H1967   H    0.88878   0.32255   0.58580   1.000
    C1968   C    0.39277   0.74092   0.63986   1.000
    C1969   C    0.40233   0.75601   0.63197   1.000
    C1970   C    0.39562   0.76475   0.61572   1.000
    C1971   C    0.37930   0.75775   0.60723   1.000
    C1972   C    0.36974   0.74265   0.61513   1.000
    C1973   C    0.37631   0.73408   0.63158   1.000
    C1974   C    0.40623   0.78072   0.60784   1.000
    C1975   C    0.39844   0.79380   0.59681   1.000
    C1976   C    0.40872   0.81002   0.58899   1.000
    C1977   C    0.39832   0.82537   0.58247   1.000
    C1978   C    0.40722   0.84080   0.57454   1.000
    C1979   C    0.42677   0.84121   0.57281   1.000
    C1980   C    0.43726   0.82590   0.57936   1.000
    C1981   C    0.42835   0.81039   0.58727   1.000
    H1982   H    0.39830   0.73477   0.65253   1.000
    H1983   H    0.41494   0.76100   0.63870   1.000
    H1984   H    0.37401   0.76361   0.59432   1.000
    H1985   H    0.35732   0.73763   0.60814   1.000
    H1986   H    0.42066   0.78214   0.61215   1.000
    H1987   H    0.38358   0.79321   0.59398   1.000
    H1988   H    0.38321   0.82547   0.58356   1.000
    H1989   H    0.39878   0.85252   0.56986   1.000
    H1990   H    0.45234   0.82576   0.57796   1.000
    H1991   H    0.43688   0.79865   0.59158   1.000
    C1992   C    0.35787   0.24642   0.11117   1.000
    C1993   C    0.36536   0.26225   0.10255   1.000
    C1994   C    0.38257   0.26958   0.10839   1.000
    C1995   C    0.39200   0.26092   0.12338   1.000
    C1996   C    0.38451   0.24505   0.13200   1.000
    C1997   C    0.36738   0.23754   0.12596   1.000
    C1998   C    0.38975   0.28656   0.09887   1.000
    C1999   C    0.40771   0.29193   0.09937   1.000
    C2000   C    0.41483   0.30899   0.08993   1.000
    C2001   C    0.43415   0.31063   0.08692   1.000
    C2002   C    0.44158   0.32667   0.07862   1.000
    C2003   C    0.42981   0.34144   0.07312   1.000
    C2004   C    0.41048   0.33985   0.07607   1.000
    C2005   C    0.40305   0.32388   0.08450   1.000
    H2006   H    0.34457   0.24129   0.10619   1.000
    H2007   H    0.35768   0.26875   0.09120   1.000
    H2008   H    0.40498   0.26644   0.12878   1.000
    H2009   H    0.39224   0.23874   0.14339   1.000
    H2010   H    0.37983   0.29437   0.09050   1.000
    H2011   H    0.41793   0.28321   0.10638   1.000
    H2012   H    0.44356   0.29945   0.09106   1.000
    H2013   H    0.45653   0.32753   0.07644   1.000
    H2014   H    0.40115   0.35123   0.07234   1.000
    H2015   H    0.38818   0.32359   0.08712   1.000
    C2016   C    0.10907   0.14156   0.74260   1.000
    C2017   C    0.10015   0.13403   0.75828   1.000
    C2018   C    0.10714   0.11792   0.76709   1.000
    C2019   C    0.12358   0.10972   0.76016   1.000
    C2020   C    0.13251   0.11718   0.74451   1.000
    C2021   C    0.12539   0.13319   0.73536   1.000
    C2022   C    0.09738   0.11052   0.78381   1.000
    C2023   C    0.09888   0.09269   0.78960   1.000
    C2024   C    0.08953   0.08521   0.80652   1.000
    C2025   C    0.08731   0.06577   0.80830   1.000
    C2026   C    0.07908   0.05805   0.82423   1.000
    C2027   C    0.07294   0.06962   0.83881   1.000
    C2028   C    0.07527   0.08907   0.83712   1.000
    C2029   C    0.08354   0.09679   0.82122   1.000
    H2030   H    0.10302   0.15390   0.73626   1.000
    H2031   H    0.08764   0.14079   0.76348   1.000
    H2032   H    0.12989   0.09774   0.76696   1.000
    H2033   H    0.14511   0.11028   0.73983   1.000
    H2034   H    0.08808   0.11999   0.79103   1.000
    H2035   H    0.10676   0.08282   0.78131   1.000
    H2036   H    0.09193   0.05651   0.79728   1.000
    H2037   H    0.07738   0.04302   0.82510   1.000
    H2038   H    0.07109   0.09831   0.84833   1.000
    H2039   H    0.08559   0.11176   0.82079   1.000
    C2040   C    0.13557   0.60888   0.24056   1.000
    C2041   C    0.12736   0.59978   0.25570   1.000
    C2042   C    0.11151   0.60722   0.26439   1.000
    C2043   C    0.10377   0.62395   0.25736   1.000
    C2044   C    0.11197   0.63310   0.24211   1.000
    C2045   C    0.12807   0.62574   0.23345   1.000
    C2046   C    0.10345   0.59678   0.28040   1.000
    C2047   C    0.09248   0.60455   0.29341   1.000
    C2048   C    0.08536   0.59420   0.30993   1.000
    C2049   C    0.07969   0.60449   0.32558   1.000
    C2050   C    0.07274   0.59545   0.34141   1.000
    C2051   C    0.07116   0.57586   0.34192   1.000
    C2052   C    0.07683   0.56549   0.32630   1.000
    C2053   C    0.08374   0.57455   0.31041   1.000
    H2054   H    0.14781   0.60242   0.23457   1.000
    H2055   H    0.13356   0.58687   0.26074   1.000
    H2056   H    0.09123   0.62990   0.26333   1.000
    H2057   H    0.10554   0.64590   0.23717   1.000
    H2058   H    0.10784   0.58238   0.28205   1.000
    H2059   H    0.08944   0.61936   0.29268   1.000
    H2060   H    0.08074   0.61960   0.32562   1.000
    H2061   H    0.06869   0.60380   0.35333   1.000
    H2062   H    0.07548   0.55040   0.32622   1.000
    H2063   H    0.08737   0.56609   0.29846   1.000
    C2064   C    0.64090   0.11052   0.24452   1.000
    C2065   C    0.63331   0.10176   0.26019   1.000
    C2066   C    0.61705   0.10869   0.26857   1.000
    C2067   C    0.60869   0.12493   0.26116   1.000
    C2068   C    0.61629   0.13376   0.24547   1.000
    C2069   C    0.63250   0.12666   0.23680   1.000
    C2070   C    0.60976   0.09894   0.28533   1.000
    C2071   C    0.59196   0.10012   0.29105   1.000
    C2072   C    0.58477   0.09021   0.30777   1.000
    C2073   C    0.56547   0.08700   0.30921   1.000
    C2074   C    0.55804   0.07816   0.32495   1.000
    C2075   C    0.56977   0.07242   0.33966   1.000
    C2076   C    0.58908   0.07563   0.33827   1.000
    C2077   C    0.59651   0.08452   0.32256   1.000
    H2078   H    0.65340   0.10445   0.23862   1.000
    H2079   H    0.64016   0.08939   0.26573   1.000
    H2080   H    0.59649   0.13110   0.26760   1.000
    H2081   H    0.60934   0.14619   0.24029   1.000
    H2082   H    0.61934   0.08970   0.29259   1.000
    H2083   H    0.58194   0.10795   0.28278   1.000
    H2084   H    0.55610   0.09134   0.29809   1.000
    H2085   H    0.54310   0.07580   0.32563   1.000
    H2086   H    0.59839   0.07176   0.34959   1.000
    H2087   H    0.61136   0.08731   0.32237   1.000
    C2088   C    0.61000   0.63943   0.74071   1.000
    C2089   C    0.60045   0.63141   0.75574   1.000
    C2090   C    0.60766   0.61563   0.76499   1.000
    C2091   C    0.62455   0.60781   0.75861   1.000
    C2092   C    0.63411   0.61584   0.74360   1.000
    C2093   C    0.62699   0.63177   0.73443   1.000
    C2094   C    0.59690   0.60749   0.78077   1.000
    C2095   C    0.60463   0.59657   0.79399   1.000
    C2096   C    0.59418   0.58843   0.80997   1.000
    C2097   C    0.60442   0.58174   0.82534   1.000
    C2098   C    0.59539   0.57358   0.84057   1.000
    C2099   C    0.57583   0.57180   0.84078   1.000
    C2100   C    0.56550   0.57846   0.82542   1.000
    C2101   C    0.57455   0.58659   0.81011   1.000
    H2102   H    0.60392   0.65159   0.73403   1.000
    H2103   H    0.58738   0.63763   0.76021   1.000
    H2104   H    0.63033   0.59529   0.76487   1.000
    H2105   H    0.64702   0.60935   0.73915   1.000
    H2106   H    0.58235   0.61145   0.78186   1.000
    H2107   H    0.61954   0.59404   0.79373   1.000
    H2108   H    0.61952   0.58290   0.82562   1.000
    H2109   H    0.60372   0.56883   0.85231   1.000
    H2110   H    0.55043   0.57704   0.82510   1.000
    H2111   H    0.56611   0.59103   0.79836   1.000
    C2112   C    0.86361   0.89182   0.73817   1.000
    C2113   C    0.87161   0.90118   0.75327   1.000
    C2114   C    0.88684   0.89346   0.76294   1.000
    C2115   C    0.89419   0.87621   0.75691   1.000
    C2116   C    0.88617   0.86681   0.74176   1.000
    C2117   C    0.87073   0.87447   0.73222   1.000
    C2118   C    0.89481   0.90410   0.77885   1.000
    C2119   C    0.90504   0.89624   0.79250   1.000
    C2120   C    0.91256   0.90671   0.80874   1.000
    C2121   C    0.91811   0.89652   0.82459   1.000
    C2122   C    0.92569   0.90557   0.84008   1.000
    C2123   C    0.92801   0.92508   0.84008   1.000
    C2124   C    0.92239   0.93538   0.82431   1.000
    C2125   C    0.91485   0.92630   0.80873   1.000
    H2126   H    0.85186   0.89836   0.73121   1.000
    H2127   H    0.86576   0.91451   0.75748   1.000
    H2128   H    0.90630   0.87002   0.76358   1.000
    H2129   H    0.89216   0.85358   0.73757   1.000
    H2130   H    0.89112   0.91874   0.77973   1.000
    H2131   H    0.90732   0.88128   0.79243   1.000
    H2132   H    0.91655   0.88145   0.82501   1.000
    H2133   H    0.92967   0.89729   0.85215   1.000
    H2134   H    0.92426   0.95040   0.82386   1.000
    H2135   H    0.91130   0.93468   0.79665   1.000
    C2136   C    0.86392   0.39162   0.24165   1.000
    C2137   C    0.87188   0.40110   0.25667   1.000
    C2138   C    0.88784   0.39410   0.26563   1.000
    C2139   C    0.89598   0.37748   0.25896   1.000
    C2140   C    0.88804   0.36794   0.24385   1.000
    C2141   C    0.87183   0.37483   0.23494   1.000
    C2142   C    0.89564   0.40482   0.28153   1.000
    C2143   C    0.90651   0.39721   0.29481   1.000
    C2144   C    0.91363   0.40772   0.31119   1.000
    C2145   C    0.91957   0.39752   0.32688   1.000
    C2146   C    0.92677   0.40665   0.34250   1.000
    C2147   C    0.92831   0.42624   0.34276   1.000
    C2148   C    0.92227   0.43654   0.32715   1.000
    C2149   C    0.91511   0.42738   0.31144   1.000
    H2150   H    0.85155   0.39771   0.23543   1.000
    H2151   H    0.86539   0.41394   0.26142   1.000
    H2152   H    0.90865   0.37190   0.26510   1.000
    H2153   H    0.89478   0.35523   0.23922   1.000
    H2154   H    0.89121   0.41923   0.28282   1.000
    H2155   H    0.90956   0.38239   0.29437   1.000
    H2156   H    0.91862   0.38240   0.32708   1.000
    H2157   H    0.93111   0.39837   0.35444   1.000
    H2158   H    0.92358   0.45163   0.32691   1.000
    H2159   H    0.91124   0.43578   0.29946   1.000
    C2160   C    0.36047   0.89265   0.24084   1.000
    C2161   C    0.36825   0.90197   0.25612   1.000
    C2162   C    0.38472   0.89542   0.26456   1.000
    C2163   C    0.39350   0.87949   0.25712   1.000
    C2164   C    0.38575   0.87014   0.24185   1.000
    C2165   C    0.36906   0.87652   0.23343   1.000
    C2166   C    0.39253   0.90586   0.28067   1.000
    C2167   C    0.40400   0.89810   0.29338   1.000
    C2168   C    0.41176   0.90826   0.30968   1.000
    C2169   C    0.41856   0.89775   0.32483   1.000
    C2170   C    0.42639   0.90658   0.34034   1.000
    C2171   C    0.42774   0.92617   0.34103   1.000
    C2172   C    0.42098   0.93675   0.32588   1.000
    C2173   C    0.41315   0.92791   0.31031   1.000
    H2174   H    0.34770   0.89827   0.23497   1.000
    H2175   H    0.36128   0.91431   0.26146   1.000
    H2176   H    0.40658   0.87434   0.26276   1.000
    H2177   H    0.39309   0.85799   0.23669   1.000
    H2178   H    0.38782   0.92012   0.28252   1.000
    H2179   H    0.40728   0.88335   0.29242   1.000
    H2180   H    0.41773   0.88263   0.32472   1.000
    H2181   H    0.43123   0.89805   0.35191   1.000
    H2182   H    0.42210   0.95185   0.32592   1.000
    H2183   H    0.40862   0.93652   0.29872   1.000
    C2184   C    0.39015   0.35926   0.74534   1.000
    C2185   C    0.39891   0.36675   0.76106   1.000
    C2186   C    0.39240   0.38340   0.76908   1.000
    C2187   C    0.37660   0.39222   0.76126   1.000
    C2188   C    0.36785   0.38474   0.74550   1.000
    C2189   C    0.37454   0.36818   0.73730   1.000
    C2190   C    0.40214   0.39066   0.78583   1.000
    C2191   C    0.40115   0.40853   0.79143   1.000
    C2192   C    0.41090   0.41571   0.80823   1.000
    C2193   C    0.41381   0.43505   0.80983   1.000
    C2194   C    0.42244   0.44248   0.82566   1.000
    C2195   C    0.42835   0.43069   0.84024   1.000
    C2196   C    0.42546   0.41135   0.83871   1.000
    C2197   C    0.41673   0.40392   0.82294   1.000
    H2198   H    0.39568   0.34641   0.73965   1.000
    H2199   H    0.41092   0.35954   0.76692   1.000
    H2200   H    0.37071   0.40473   0.76738   1.000
    H2201   H    0.35581   0.39198   0.73985   1.000
    H2202   H    0.41109   0.38095   0.79325   1.000
    H2203   H    0.39356   0.41862   0.78305   1.000
    H2204   H    0.40936   0.44447   0.79879   1.000
    H2205   H    0.42455   0.45745   0.82650   1.000
    H2206   H    0.42946   0.40200   0.84996   1.000
    H2207   H    0.41419   0.38903   0.82266   1.000
    C2208   C    0.10599   0.85847   0.25866   1.000
    C2209   C    0.09644   0.86600   0.24331   1.000
    C2210   C    0.10276   0.88240   0.23461   1.000
    C2211   C    0.11866   0.89139   0.24187   1.000
    C2212   C    0.12820   0.88389   0.25721   1.000
    C2213   C    0.12204   0.86730   0.26581   1.000
    C2214   C    0.09214   0.89001   0.21843   1.000
    C2215   C    0.09986   0.90117   0.20548   1.000
    C2216   C    0.08960   0.90902   0.18920   1.000
    C2217   C    0.10003   0.91573   0.17404   1.000
    C2218   C    0.09116   0.92380   0.15861   1.000
    C2219   C    0.07159   0.92550   0.15803   1.000
    C2220   C    0.06107   0.91875   0.17315   1.000
    C2221   C    0.06997   0.91068   0.18865   1.000
    H2222   H    0.10070   0.84575   0.26487   1.000
    H2223   H    0.08413   0.85888   0.23813   1.000
    H2224   H    0.12363   0.90442   0.23603   1.000
    H2225   H    0.14033   0.89128   0.26234   1.000
    H2226   H    0.07781   0.88549   0.21682   1.000
    H2227   H    0.11466   0.90419   0.20628   1.000
    H2228   H    0.11515   0.91470   0.17410   1.000
    H2229   H    0.09964   0.92860   0.14705   1.000
    H2230   H    0.04599   0.92011   0.17318   1.000
    H2231   H    0.06141   0.90621   0.20025   1.000
    C2232   C    0.14215   0.39014   0.75701   1.000
    C2233   C    0.13479   0.39895   0.74116   1.000
    C2234   C    0.11824   0.39251   0.73287   1.000
    C2235   C    0.10936   0.37674   0.74059   1.000
    C2236   C    0.11672   0.36793   0.75645   1.000
    C2237   C    0.13319   0.37453   0.76492   1.000
    C2238   C    0.11116   0.40218   0.71587   1.000
    C2239   C    0.09338   0.40117   0.70990   1.000
    C2240   C    0.08633   0.41072   0.69282   1.000
    C2241   C    0.06697   0.41333   0.69074   1.000
    C2242   C    0.05964   0.42172   0.67464   1.000
    C2243   C    0.07152   0.42764   0.66021   1.000
    C2244   C    0.09089   0.42502   0.66224   1.000
    C2245   C    0.09824   0.41657   0.67829   1.000
    H2246   H    0.15490   0.39565   0.76295   1.000
    H2247   H    0.14204   0.41093   0.73540   1.000
    H2248   H    0.09693   0.37089   0.73430   1.000
    H2249   H    0.10945   0.35588   0.76195   1.000
    H2250   H    0.12094   0.41108   0.70856   1.000
    H2251   H    0.08322   0.39364   0.71817   1.000
    H2252   H    0.05746   0.40887   0.70162   1.000
    H2253   H    0.04465   0.42363   0.67350   1.000
    H2254   H    0.10036   0.42906   0.65115   1.000
    H2255   H    0.11316   0.41426   0.67894   1.000
    C2256   C    0.60786   0.86402   0.76131   1.000
    C2257   C    0.59804   0.87217   0.74651   1.000
    C2258   C    0.60540   0.88757   0.73688   1.000
    C2259   C    0.62260   0.89508   0.74280   1.000
    C2260   C    0.63244   0.88693   0.75766   1.000
    C2261   C    0.62527   0.87119   0.76697   1.000
    C2262   C    0.59455   0.89546   0.72102   1.000
    C2263   C    0.60233   0.90538   0.70715   1.000
    C2264   C    0.59184   0.91276   0.69079   1.000
    C2265   C    0.60207   0.91862   0.67514   1.000
    C2266   C    0.59300   0.92607   0.65953   1.000
    C2267   C    0.57345   0.92789   0.65920   1.000
    C2268   C    0.56311   0.92193   0.67475   1.000
    C2269   C    0.57220   0.91456   0.69046   1.000
    H2270   H    0.60169   0.85214   0.76833   1.000
    H2271   H    0.58471   0.86626   0.74243   1.000
    H2272   H    0.62847   0.90735   0.73619   1.000
    H2273   H    0.64574   0.89289   0.76168   1.000
    H2274   H    0.57989   0.89190   0.72035   1.000
    H2275   H    0.61731   0.90751   0.70717   1.000
    H2276   H    0.61718   0.91743   0.67497   1.000
    H2277   H    0.60130   0.93035   0.64763   1.000
    H2278   H    0.54804   0.92341   0.67491   1.000
    H2279   H    0.56375   0.91075   0.70236   1.000
    C2280   C    0.60928   0.36254   0.26073   1.000
    C2281   C    0.59998   0.37071   0.24562   1.000
    C2282   C    0.60679   0.38705   0.23727   1.000
    C2283   C    0.62301   0.39536   0.24466   1.000
    C2284   C    0.63234   0.38723   0.25987   1.000
    C2285   C    0.62569   0.37060   0.26813   1.000
    C2286   C    0.59629   0.39510   0.22125   1.000
    C2287   C    0.60404   0.40625   0.20834   1.000
    C2288   C    0.59373   0.41365   0.19189   1.000
    C2289   C    0.60402   0.41935   0.17624   1.000
    C2290   C    0.59502   0.42671   0.16054   1.000
    C2291   C    0.57547   0.42872   0.16017   1.000
    C2292   C    0.56509   0.42300   0.17579   1.000
    C2293   C    0.57411   0.41563   0.19155   1.000
    H2294   H    0.60336   0.34991   0.26649   1.000
    H2295   H    0.58743   0.36410   0.24031   1.000
    H2296   H    0.62842   0.40828   0.23897   1.000
    H2297   H    0.64477   0.39409   0.26503   1.000
    H2298   H    0.58194   0.39064   0.21952   1.000
    H2299   H    0.61884   0.40929   0.20914   1.000
    H2300   H    0.61912   0.41802   0.17612   1.000
    H2301   H    0.60338   0.43075   0.14861   1.000
    H2302   H    0.55003   0.42465   0.17598   1.000
    H2303   H    0.56568   0.41196   0.20352   1.000
    C2304   C    0.89214   0.14055   0.25779   1.000
    C2305   C    0.90146   0.13300   0.24238   1.000
    C2306   C    0.89531   0.11632   0.23415   1.000
    C2307   C    0.87982   0.10709   0.24197   1.000
    C2308   C    0.87051   0.11461   0.25738   1.000
    C2309   C    0.87649   0.13148   0.26550   1.000
    C2310   C    0.90568   0.10873   0.21786   1.000
    C2311   C    0.89793   0.09721   0.20526   1.000
    C2312   C    0.90793   0.08956   0.18877   1.000
    C2313   C    0.89726   0.08262   0.17386   1.000
    C2314   C    0.90590   0.07477   0.15826   1.000
    C2315   C    0.92548   0.07349   0.15721   1.000
    C2316   C    0.93623   0.08046   0.17210   1.000
    C2317   C    0.92757   0.08834   0.18776   1.000
    H2318   H    0.89728   0.15350   0.26359   1.000
    H2319   H    0.91346   0.14032   0.23677   1.000
    H2320   H    0.87500   0.09386   0.23650   1.000
    H2321   H    0.85870   0.10703   0.26295   1.000
    H2322   H    0.91983   0.11362   0.21580   1.000
    H2323   H    0.88326   0.09376   0.20648   1.000
    H2324   H    0.88213   0.08332   0.17425   1.000
    H2325   H    0.89720   0.06983   0.14690   1.000
    H2326   H    0.95134   0.07944   0.17181   1.000
    H2327   H    0.93632   0.09301   0.19915   1.000
    C2328   C    0.85879   0.61093   0.75429   1.000
    C2329   C    0.86620   0.60208   0.73862   1.000
    C2330   C    0.88324   0.60791   0.73097   1.000
    C2331   C    0.89258   0.62317   0.73913   1.000
    C2332   C    0.88516   0.63205   0.75486   1.000
    C2333   C    0.86821   0.62597   0.76271   1.000
    C2334   C    0.89034   0.59801   0.71423   1.000
    C2335   C    0.90826   0.59827   0.70875   1.000
    C2336   C    0.91528   0.58816   0.69208   1.000
    C2337   C    0.93456   0.58477   0.69059   1.000
    C2338   C    0.94190   0.57582   0.67490   1.000
    C2339   C    0.93009   0.57009   0.66031   1.000
    C2340   C    0.91079   0.57338   0.66178   1.000
    C2341   C    0.90345   0.58242   0.67742   1.000
    H2342   H    0.84559   0.60596   0.75967   1.000
    H2343   H    0.85858   0.59053   0.73250   1.000
    H2344   H    0.90545   0.62853   0.73333   1.000
    H2345   H    0.89278   0.64363   0.76087   1.000
    H2346   H    0.88041   0.58943   0.70677   1.000
    H2347   H    0.91852   0.60551   0.71717   1.000
    H2348   H    0.94401   0.58911   0.70159   1.000
    H2349   H    0.95683   0.57342   0.67413   1.000
    H2350   H    0.90143   0.56950   0.65054   1.000
    H2351   H    0.88862   0.58531   0.67760   1.000
    C2352   C    0.38720   0.14010   0.75737   1.000
    C2353   C    0.39587   0.13258   0.74164   1.000
    C2354   C    0.38966   0.11571   0.73389   1.000
    C2355   C    0.37425   0.10664   0.74210   1.000
    C2356   C    0.36555   0.11419   0.75791   1.000
    C2357   C    0.37196   0.13100   0.76580   1.000
    C2358   C    0.39928   0.10862   0.71695   1.000
    C2359   C    0.39844   0.09084   0.71104   1.000
    C2360   C    0.40841   0.08393   0.69421   1.000
    C2361   C    0.41154   0.06463   0.69238   1.000
    C2362   C    0.42045   0.05744   0.67658   1.000
    C2363   C    0.42638   0.06941   0.66218   1.000
    C2364   C    0.42326   0.08872   0.66395   1.000
    C2365   C    0.41428   0.09591   0.67971   1.000
    H2366   H    0.39256   0.15312   0.76279   1.000
    H2367   H    0.40755   0.13999   0.73553   1.000
    H2368   H    0.36862   0.09391   0.73627   1.000
    H2369   H    0.35379   0.10682   0.76386   1.000
    H2370   H    0.40819   0.11842   0.70967   1.000
    H2371   H    0.39087   0.08062   0.71921   1.000
    H2372   H    0.40709   0.05505   0.70324   1.000
    H2373   H    0.42273   0.04249   0.67563   1.000
    H2374   H    0.42727   0.09823   0.65287   1.000
    H2375   H    0.41157   0.11078   0.68013   1.000
    C2376   C    0.35998   0.61382   0.25648   1.000
    C2377   C    0.36740   0.60527   0.24064   1.000
    C2378   C    0.38461   0.61100   0.23326   1.000
    C2379   C    0.39415   0.62584   0.24199   1.000
    C2380   C    0.38670   0.63442   0.25791   1.000
    C2381   C    0.36954   0.62848   0.26541   1.000
    C2382   C    0.39163   0.60146   0.21623   1.000
    C2383   C    0.40950   0.60182   0.21054   1.000
    C2384   C    0.41639   0.59197   0.19361   1.000
    C2385   C    0.43568   0.58871   0.19183   1.000
    C2386   C    0.44289   0.57994   0.17597   1.000
    C2387   C    0.43097   0.57423   0.16145   1.000
    C2388   C    0.41167   0.57743   0.16319   1.000
    C2389   C    0.40445   0.58630   0.17901   1.000
    H2390   H    0.34665   0.60890   0.26157   1.000
    H2391   H    0.35963   0.59403   0.23413   1.000
    H2392   H    0.40717   0.63111   0.23648   1.000
    H2393   H    0.39444   0.64571   0.26428   1.000
    H2394   H    0.38163   0.59305   0.20866   1.000
    H2395   H    0.41983   0.60893   0.21897   1.000
    H2396   H    0.44523   0.59299   0.20277   1.000
    H2397   H    0.45783   0.57759   0.17505   1.000
    H2398   H    0.40219   0.57356   0.15204   1.000
    H2399   H    0.38959   0.58906   0.17939   1.000
    C2400   C    0.10870   0.25930   0.86005   1.000
    C2401   C    0.09939   0.24382   0.86753   1.000
    C2402   C    0.10600   0.23497   0.88375   1.000
    C2403   C    0.12200   0.24219   0.89259   1.000
    C2404   C    0.13134   0.25764   0.88514   1.000
    C2405   C    0.12489   0.26649   0.86870   1.000
    C2406   C    0.09554   0.21870   0.89130   1.000
    C2407   C    0.10332   0.20574   0.90250   1.000
    C2408   C    0.09316   0.18935   0.91018   1.000
    C2409   C    0.10366   0.17415   0.91692   1.000
    C2410   C    0.09486   0.15859   0.92474   1.000
    C2411   C    0.07528   0.15788   0.92614   1.000
    C2412   C    0.06470   0.17306   0.91942   1.000
    C2413   C    0.07352   0.18869   0.91160   1.000
    H2414   H    0.10303   0.26549   0.84747   1.000
    H2415   H    0.08699   0.23867   0.86052   1.000
    H2416   H    0.12721   0.23623   0.90549   1.000
    H2417   H    0.14353   0.26261   0.89252   1.000
    H2418   H    0.08123   0.21701   0.88669   1.000
    H2419   H    0.11809   0.20658   0.90566   1.000
    H2420   H    0.11879   0.17429   0.91608   1.000
    H2421   H    0.10340   0.14700   0.92953   1.000
    H2422   H    0.04960   0.17301   0.92057   1.000
    H2423   H    0.06489   0.20030   0.90713   1.000
    C2424   C    0.14205   0.75667   0.39035   1.000
    C2425   C    0.13483   0.74094   0.39940   1.000
    C2426   C    0.11853   0.73227   0.39288   1.000
    C2427   C    0.10982   0.73941   0.37674   1.000
    C2428   C    0.11701   0.75515   0.36765   1.000
    C2429   C    0.13322   0.76415   0.37435   1.000
    C2430   C    0.11147   0.71554   0.40291   1.000
    C2431   C    0.09361   0.70988   0.40215   1.000
    C2432   C    0.08642   0.69314   0.41211   1.000
    C2433   C    0.06708   0.69161   0.41503   1.000
    C2434   C    0.05957   0.67582   0.42374   1.000
    C2435   C    0.07125   0.66115   0.42969   1.000
    C2436   C    0.09062   0.66265   0.42682   1.000
    C2437   C    0.09814   0.67841   0.41805   1.000
    H2438   H    0.15457   0.76285   0.39610   1.000
    H2439   H    0.14196   0.73559   0.41168   1.000
    H2440   H    0.09762   0.73274   0.37083   1.000
    H2441   H    0.10976   0.76008   0.35533   1.000
    H2442   H    0.12126   0.70827   0.41190   1.000
    H2443   H    0.08349   0.71820   0.39452   1.000
    H2444   H    0.05771   0.70267   0.41051   1.000
    H2445   H    0.04460   0.67509   0.42586   1.000
    H2446   H    0.09992   0.65136   0.43087   1.000
    H2447   H    0.11303   0.67868   0.41554   1.000
    C2448   C    0.60762   0.25820   0.36148   1.000
    C2449   C    0.59806   0.24302   0.36916   1.000
    C2450   C    0.60434   0.23449   0.38565   1.000
    C2451   C    0.62025   0.24178   0.39461   1.000
    C2452   C    0.62983   0.25701   0.38698   1.000
    C2453   C    0.62373   0.26547   0.37022   1.000
    C2454   C    0.59364   0.21845   0.39325   1.000
    C2455   C    0.60115   0.20550   0.40459   1.000
    C2456   C    0.59070   0.18920   0.41200   1.000
    C2457   C    0.60092   0.17374   0.41852   1.000
    C2458   C    0.59182   0.15827   0.42613   1.000
    C2459   C    0.57223   0.15795   0.42755   1.000
    C2460   C    0.56191   0.17335   0.42095   1.000
    C2461   C    0.57104   0.18889   0.41335   1.000
    H2462   H    0.60216   0.26412   0.34869   1.000
    H2463   H    0.58575   0.23780   0.36205   1.000
    H2464   H    0.62522   0.23600   0.40769   1.000
    H2465   H    0.64200   0.26205   0.39438   1.000
    H2466   H    0.57940   0.21682   0.38842   1.000
    H2467   H    0.61589   0.20623   0.40798   1.000
    H2468   H    0.61605   0.17360   0.41770   1.000
    H2469   H    0.60012   0.14648   0.43086   1.000
    H2470   H    0.54681   0.17355   0.42212   1.000
    H2471   H    0.56264   0.20073   0.40902   1.000
    C2472   C    0.60773   0.75919   0.86109   1.000
    C2473   C    0.59800   0.74426   0.86907   1.000
    C2474   C    0.60466   0.73553   0.88533   1.000
    C2475   C    0.62098   0.74244   0.89385   1.000
    C2476   C    0.63072   0.75735   0.88587   1.000
    C2477   C    0.62430   0.76584   0.86933   1.000
    C2478   C    0.59410   0.71953   0.89315   1.000
    C2479   C    0.60209   0.70629   0.90380   1.000
    C2480   C    0.59202   0.68990   0.91147   1.000
    C2481   C    0.60262   0.67461   0.91783   1.000
    C2482   C    0.59391   0.65899   0.92557   1.000
    C2483   C    0.57436   0.65833   0.92720   1.000
    C2484   C    0.56367   0.67356   0.92083   1.000
    C2485   C    0.57240   0.68927   0.91314   1.000
    H2486   H    0.60216   0.76549   0.84851   1.000
    H2487   H    0.58532   0.73937   0.86238   1.000
    H2488   H    0.62621   0.73656   0.90678   1.000
    H2489   H    0.64334   0.76210   0.89271   1.000
    H2490   H    0.57961   0.71821   0.88901   1.000
    H2491   H    0.61699   0.70687   0.90642   1.000
    H2492   H    0.61773   0.67472   0.91677   1.000
    H2493   H    0.60247   0.64732   0.93014   1.000
    H2494   H    0.54859   0.67347   0.92216   1.000
    H2495   H    0.56371   0.70094   0.90896   1.000
    C2496   C    0.89147   0.25785   0.14033   1.000
    C2497   C    0.90060   0.24255   0.13230   1.000
    C2498   C    0.89400   0.23460   0.11566   1.000
    C2499   C    0.87813   0.24253   0.10704   1.000
    C2500   C    0.86899   0.25784   0.11507   1.000
    C2501   C    0.87552   0.26574   0.13183   1.000
    C2502   C    0.90442   0.21858   0.10748   1.000
    C2503   C    0.89683   0.20639   0.09542   1.000
    C2504   C    0.90709   0.19025   0.08728   1.000
    C2505   C    0.89671   0.17537   0.07989   1.000
    C2506   C    0.90565   0.16004   0.07173   1.000
    C2507   C    0.92526   0.15928   0.07059   1.000
    C2508   C    0.93571   0.17419   0.07792   1.000
    C2509   C    0.92675   0.18956   0.08610   1.000
    H2510   H    0.89703   0.26346   0.15319   1.000
    H2511   H    0.91287   0.23686   0.13917   1.000
    H2512   H    0.87289   0.23726   0.09390   1.000
    H2513   H    0.85689   0.26353   0.10795   1.000
    H2514   H    0.91859   0.21638   0.11233   1.000
    H2515   H    0.88216   0.20763   0.09189   1.000
    H2516   H    0.88157   0.17553   0.08052   1.000
    H2517   H    0.89718   0.14867   0.06648   1.000
    H2518   H    0.95082   0.17413   0.07701   1.000
    H2519   H    0.93530   0.20097   0.09107   1.000
    C2520   C    0.85905   0.75225   0.61669   1.000
    C2521   C    0.86648   0.73646   0.60810   1.000
    C2522   C    0.88457   0.73023   0.61240   1.000
    C2523   C    0.89499   0.73997   0.62597   1.000
    C2524   C    0.88752   0.75589   0.63461   1.000
    C2525   C    0.86952   0.76232   0.62990   1.000
    C2526   C    0.89159   0.71338   0.60258   1.000
    C2527   C    0.90964   0.70835   0.60167   1.000
    C2528   C    0.91635   0.69167   0.59128   1.000
    C2529   C    0.93544   0.69038   0.58692   1.000
    C2530   C    0.94249   0.67476   0.57756   1.000
    C2531   C    0.93057   0.66010   0.57233   1.000
    C2532   C    0.91147   0.66137   0.57655   1.000
    C2533   C    0.90443   0.67688   0.58607   1.000
    H2534   H    0.84500   0.75644   0.61294   1.000
    H2535   H    0.85803   0.72912   0.59791   1.000
    H2536   H    0.90878   0.73536   0.63015   1.000
    H2537   H    0.89592   0.76324   0.64479   1.000
    H2538   H    0.88129   0.70540   0.59496   1.000
    H2539   H    0.92015   0.71713   0.60803   1.000
    H2540   H    0.94497   0.70146   0.59083   1.000
    H2541   H    0.95729   0.67409   0.57447   1.000
    H2542   H    0.90208   0.65003   0.57305   1.000
    H2543   H    0.88978   0.67682   0.58968   1.000
    C2544   C    0.39078   0.25850   0.63741   1.000
    C2545   C    0.39975   0.24320   0.62934   1.000
    C2546   C    0.39263   0.23489   0.61315   1.000
    C2547   C    0.37637   0.24245   0.60496   1.000
    C2548   C    0.36733   0.25781   0.61304   1.000
    C2549   C    0.37436   0.26610   0.62946   1.000
    C2550   C    0.40294   0.21881   0.60511   1.000
    C2551   C    0.39519   0.20621   0.59364   1.000
    C2552   C    0.40539   0.18970   0.58633   1.000
    C2553   C    0.39498   0.17430   0.58016   1.000
    C2554   C    0.40392   0.15851   0.57301   1.000
    C2555   C    0.42351   0.15779   0.57173   1.000
    C2556   C    0.43399   0.17319   0.57782   1.000
    C2557   C    0.42504   0.18905   0.58495   1.000
    H2558   H    0.39693   0.26419   0.64995   1.000
    H2559   H    0.41232   0.23776   0.63588   1.000
    H2560   H    0.37071   0.23682   0.59215   1.000
    H2561   H    0.35491   0.26314   0.60623   1.000
    H2562   H    0.41718   0.21675   0.60983   1.000
    H2563   H    0.38048   0.20731   0.59024   1.000
    H2564   H    0.37986   0.17442   0.58101   1.000
    H2565   H    0.39548   0.14675   0.56861   1.000
    H2566   H    0.44909   0.17313   0.57669   1.000
    H2567   H    0.43359   0.20083   0.58897   1.000
    C2568   C    0.39272   0.75948   0.14200   1.000
    C2569   C    0.40222   0.74416   0.13444   1.000
    C2570   C    0.39567   0.73538   0.11822   1.000
    C2571   C    0.37949   0.74247   0.10951   1.000
    C2572   C    0.36995   0.75774   0.11706   1.000
    C2573   C    0.37639   0.76658   0.13343   1.000
    C2574   C    0.40643   0.71940   0.11047   1.000
    C2575   C    0.39894   0.70660   0.09902   1.000
    C2576   C    0.40947   0.69065   0.09092   1.000
    C2577   C    0.39930   0.67558   0.08363   1.000
    C2578   C    0.40844   0.66050   0.07530   1.000
    C2579   C    0.42804   0.66017   0.07395   1.000
    C2580   C    0.43829   0.67521   0.08126   1.000
    C2581   C    0.42913   0.69036   0.08958   1.000
    H2582   H    0.39835   0.76564   0.15457   1.000
    H2583   H    0.41473   0.73909   0.14137   1.000
    H2584   H    0.37430   0.73659   0.09662   1.000
    H2585   H    0.35764   0.76264   0.10973   1.000
    H2586   H    0.42077   0.71785   0.11505   1.000
    H2587   H    0.38415   0.70728   0.09585   1.000
    H2588   H    0.38417   0.67544   0.08439   1.000
    H2589   H    0.40016   0.64898   0.07005   1.000
    H2590   H    0.45339   0.67543   0.08018   1.000
    H2591   H    0.43751   0.70191   0.09448   1.000
    C2592   C    0.88736   0.74342   0.85711   1.000
    C2593   C    0.89628   0.75913   0.86451   1.000
    C2594   C    0.89054   0.76680   0.88158   1.000
    C2595   C    0.87535   0.75855   0.89096   1.000
    C2596   C    0.86643   0.74281   0.88356   1.000
    C2597   C    0.87234   0.73499   0.86656   1.000
    C2598   C    0.90038   0.78366   0.88863   1.000
    C2599   C    0.89993   0.78933   0.90650   1.000
    C2600   C    0.90977   0.80622   0.91354   1.000
    C2601   C    0.91246   0.80810   0.93288   1.000
    C2602   C    0.92110   0.82399   0.94025   1.000
    C2603   C    0.92726   0.83841   0.92842   1.000
    C2604   C    0.92465   0.83657   0.90907   1.000
    C2605   C    0.91590   0.82073   0.90169   1.000
    H2606   H    0.89232   0.73802   0.84394   1.000
    H2607   H    0.90779   0.76527   0.85685   1.000
    H2608   H    0.87003   0.76432   0.90384   1.000
    H2609   H    0.85485   0.73687   0.89123   1.000
    H2610   H    0.90896   0.79113   0.87870   1.000
    H2611   H    0.89263   0.78094   0.91673   1.000
    H2612   H    0.90781   0.79724   0.94236   1.000
    H2613   H    0.92301   0.82498   0.95522   1.000
    H2614   H    0.92888   0.84765   0.89965   1.000
    H2615   H    0.91361   0.82027   0.88678   1.000
    C2616   C    0.86110   0.24112   0.39192   1.000
    C2617   C    0.86891   0.25641   0.40121   1.000
    C2618   C    0.88476   0.26547   0.39410   1.000
    C2619   C    0.89287   0.25864   0.37757   1.000
    C2620   C    0.88506   0.24334   0.36826   1.000
    C2621   C    0.86906   0.23436   0.37529   1.000
    C2622   C    0.89265   0.28150   0.40465   1.000
    C2623   C    0.90377   0.29451   0.39698   1.000
    C2624   C    0.91166   0.31069   0.40732   1.000
    C2625   C    0.91860   0.32586   0.39698   1.000
    C2626   C    0.92657   0.34123   0.40593   1.000
    C2627   C    0.92791   0.34179   0.42550   1.000
    C2628   C    0.92097   0.32666   0.43593   1.000
    C2629   C    0.91303   0.31120   0.42695   1.000
    H2630   H    0.84886   0.23464   0.39791   1.000
    H2631   H    0.86245   0.26123   0.41400   1.000
    H2632   H    0.90545   0.26476   0.37189   1.000
    H2633   H    0.89174   0.23854   0.35561   1.000
    H2634   H    0.88834   0.28295   0.41904   1.000
    H2635   H    0.90672   0.29389   0.38218   1.000
    H2636   H    0.91779   0.32586   0.38187   1.000
    H2637   H    0.93155   0.35280   0.39752   1.000
    H2638   H    0.92205   0.32660   0.45101   1.000
    H2639   H    0.90840   0.29962   0.43549   1.000
    C2640   C    0.36414   0.74056   0.39080   1.000
    C2641   C    0.37225   0.75564   0.40004   1.000
    C2642   C    0.38826   0.76431   0.39296   1.000
    C2643   C    0.39626   0.75731   0.37644   1.000
    C2644   C    0.38816   0.74211   0.36713   1.000
    C2645   C    0.37191   0.73347   0.37415   1.000
    C2646   C    0.39622   0.78022   0.40358   1.000
    C2647   C    0.40736   0.79327   0.39608   1.000
    C2648   C    0.41444   0.80966   0.40662   1.000
    C2649   C    0.42035   0.82540   0.39653   1.000
    C2650   C    0.42738   0.84107   0.40574   1.000
    C2651   C    0.42881   0.84133   0.42533   1.000
    C2652   C    0.42282   0.82565   0.43551   1.000
    C2653   C    0.41583   0.80991   0.42628   1.000
    H2654   H    0.35176   0.73460   0.39700   1.000
    H2655   H    0.36584   0.76064   0.41279   1.000
    H2656   H    0.40893   0.76327   0.37077   1.000
    H2657   H    0.39478   0.73719   0.35450   1.000
    H2658   H    0.39163   0.78176   0.41788   1.000
    H2659   H    0.41062   0.79265   0.38135   1.000
    H2660   H    0.41948   0.82561   0.38142   1.000
    H2661   H    0.43167   0.85305   0.39752   1.000
    H2662   H    0.42403   0.82538   0.45059   1.000
    H2663   H    0.41198   0.79789   0.43460   1.000
    C2664   C    0.38728   0.24683   0.86020   1.000
    C2665   C    0.39604   0.26263   0.86753   1.000
    C2666   C    0.39022   0.27030   0.88457   1.000
    C2667   C    0.37505   0.26200   0.89394   1.000
    C2668   C    0.36627   0.24616   0.88661   1.000
    C2669   C    0.37234   0.23829   0.86968   1.000
    C2670   C    0.39993   0.28723   0.89158   1.000
    C2671   C    0.39957   0.29281   0.90946   1.000
    C2672   C    0.40947   0.30966   0.91645   1.000
    C2673   C    0.41269   0.31132   0.93573   1.000
    C2674   C    0.42151   0.32713   0.94302   1.000
    C2675   C    0.42728   0.34171   0.93118   1.000
    C2676   C    0.42406   0.34012   0.91190   1.000
    C2677   C    0.41516   0.32435   0.90460   1.000
    H2678   H    0.39229   0.24143   0.84705   1.000
    H2679   H    0.40751   0.26885   0.85986   1.000
    H2680   H    0.36967   0.26780   0.90678   1.000
    H2681   H    0.35476   0.24011   0.89428   1.000
    H2682   H    0.40847   0.29475   0.88164   1.000
    H2683   H    0.39238   0.28436   0.91972   1.000
    H2684   H    0.40837   0.30031   0.94520   1.000
    H2685   H    0.42387   0.32796   0.95794   1.000
    H2686   H    0.42797   0.35133   0.90249   1.000
    H2687   H    0.41240   0.32406   0.88976   1.000
    C2688   C    0.14001   0.74204   0.11298   1.000
    C2689   C    0.13245   0.75786   0.10431   1.000
    C2690   C    0.11613   0.76625   0.11112   1.000
    C2691   C    0.10767   0.75866   0.12716   1.000
    C2692   C    0.11525   0.74280   0.13592   1.000
    C2693   C    0.13154   0.73415   0.12894   1.000
    C2694   C    0.10889   0.78315   0.10134   1.000
    C2695   C    0.09115   0.78919   0.10246   1.000
    C2696   C    0.08397   0.80584   0.09220   1.000
    C2697   C    0.06462   0.80756   0.08929   1.000
    C2698   C    0.05718   0.82317   0.08008   1.000
    C2699   C    0.06894   0.83751   0.07363   1.000
    C2700   C    0.08831   0.83585   0.07652   1.000
    C2701   C    0.09575   0.82026   0.08579   1.000
    H2702   H    0.15256   0.73619   0.10699   1.000
    H2703   H    0.13938   0.76350   0.09210   1.000
    H2704   H    0.09539   0.76504   0.13322   1.000
    H2705   H    0.10825   0.73747   0.14819   1.000
    H2706   H    0.11848   0.79021   0.09205   1.000
    H2707   H    0.08112   0.78118   0.11045   1.000
    H2708   H    0.05520   0.79675   0.09414   1.000
    H2709   H    0.04221   0.82402   0.07798   1.000
    H2710   H    0.09767   0.84688   0.07210   1.000
    H2711   H    0.11066   0.81989   0.08828   1.000
    C2712   C    0.13993   0.24002   0.60769   1.000
    C2713   C    0.13240   0.25537   0.59819   1.000
    C2714   C    0.11640   0.26448   0.60486   1.000
    C2715   C    0.10782   0.25763   0.62116   1.000
    C2716   C    0.11535   0.24227   0.63072   1.000
    C2717   C    0.13157   0.23318   0.62418   1.000
    C2718   C    0.10890   0.28065   0.59414   1.000
    C2719   C    0.09794   0.29386   0.60168   1.000
    C2720   C    0.09059   0.31029   0.59125   1.000
    C2721   C    0.08410   0.32566   0.60152   1.000
    C2722   C    0.07654   0.34126   0.59248   1.000
    C2723   C    0.07516   0.34183   0.57291   1.000
    C2724   C    0.08174   0.32654   0.56255   1.000
    C2725   C    0.08929   0.31086   0.57161   1.000
    H2726   H    0.15235   0.23365   0.60193   1.000
    H2727   H    0.13922   0.26025   0.58559   1.000
    H2728   H    0.09510   0.26383   0.62647   1.000
    H2729   H    0.10821   0.23755   0.64316   1.000
    H2730   H    0.11344   0.28208   0.57982   1.000
    H2731   H    0.09480   0.29323   0.61645   1.000
    H2732   H    0.08488   0.32562   0.61663   1.000
    H2733   H    0.07181   0.35295   0.60084   1.000
    H2734   H    0.08060   0.32652   0.54746   1.000
    H2735   H    0.09361   0.29913   0.56315   1.000
    C2736   C    0.63828   0.73866   0.60498   1.000
    C2737   C    0.63054   0.75410   0.59577   1.000
    C2738   C    0.61463   0.76308   0.60286   1.000
    C2739   C    0.60631   0.75597   0.61919   1.000
    C2740   C    0.61405   0.74051   0.62841   1.000
    C2741   C    0.63020   0.73169   0.62149   1.000
    C2742   C    0.60694   0.77944   0.59259   1.000
    C2743   C    0.59633   0.79260   0.60069   1.000
    C2744   C    0.58875   0.80922   0.59076   1.000
    C2745   C    0.58259   0.82443   0.60146   1.000
    C2746   C    0.57489   0.84022   0.59290   1.000
    C2747   C    0.57305   0.84115   0.57339   1.000
    C2748   C    0.57925   0.82600   0.56259   1.000
    C2749   C    0.58692   0.81013   0.57117   1.000
    H2750   H    0.65065   0.73230   0.59909   1.000
    H2751   H    0.63713   0.75916   0.58312   1.000
    H2752   H    0.59365   0.76204   0.62478   1.000
    H2753   H    0.60722   0.73548   0.64090   1.000
    H2754   H    0.61110   0.78108   0.57817   1.000
    H2755   H    0.59369   0.79175   0.61554   1.000
    H2756   H    0.58378   0.82411   0.61655   1.000
    H2757   H    0.57046   0.85180   0.60157   1.000
    H2758   H    0.57775   0.82627   0.54754   1.000
    H2759   H    0.59095   0.79853   0.56239   1.000
    C2760   C    0.61177   0.24313   0.14282   1.000
    C2761   C    0.60276   0.25899   0.13573   1.000
    C2762   C    0.60804   0.26673   0.11853   1.000
    C2763   C    0.62289   0.25839   0.10867   1.000
    C2764   C    0.63193   0.24248   0.11578   1.000
    C2765   C    0.62646   0.23459   0.13293   1.000
    C2766   C    0.59812   0.28378   0.11184   1.000
    C2767   C    0.59788   0.28948   0.09395   1.000
    C2768   C    0.58785   0.30649   0.08727   1.000
    C2769   C    0.58424   0.30837   0.06807   1.000
    C2770   C    0.57551   0.32440   0.06099   1.000
    C2771   C    0.57020   0.33901   0.07295   1.000
    C2772   C    0.57364   0.33714   0.09218   1.000
    C2773   C    0.58247   0.32113   0.09928   1.000
    H2774   H    0.60717   0.23771   0.15614   1.000
    H2775   H    0.59153   0.26521   0.14375   1.000
    H2776   H    0.62785   0.26422   0.09565   1.000
    H2777   H    0.64322   0.23644   0.10777   1.000
    H2778   H    0.58999   0.29132   0.12208   1.000
    H2779   H    0.60472   0.28104   0.08347   1.000
    H2780   H    0.58827   0.29740   0.05847   1.000
    H2781   H    0.57294   0.32540   0.04611   1.000
    H2782   H    0.57007   0.34834   0.10169   1.000
    H2783   H    0.58547   0.32064   0.11407   1.000
    C2784   C    0.25484   0.14182   0.88782   1.000
    C2785   C    0.23904   0.13423   0.89640   1.000
    C2786   C    0.23220   0.11662   0.89117   1.000
    C2787   C    0.24142   0.10688   0.87678   1.000
    C2788   C    0.25728   0.11448   0.86819   1.000
    C2789   C    0.26425   0.13202   0.87365   1.000
    C2790   C    0.21521   0.10938   0.90071   1.000
    C2791   C    0.20988   0.09136   0.90054   1.000
    C2792   C    0.19293   0.08417   0.91022   1.000
    C2793   C    0.19127   0.06479   0.91310   1.000
    C2794   C    0.17539   0.05727   0.92164   1.000
    C2795   C    0.16075   0.06896   0.92754   1.000
    C2796   C    0.16235   0.08834   0.92469   1.000
    C2797   C    0.17817   0.09587   0.91605   1.000
    H2798   H    0.25952   0.15545   0.89232   1.000
    H2799   H    0.23214   0.14217   0.90725   1.000
    H2800   H    0.23638   0.09354   0.87185   1.000
    H2801   H    0.26405   0.10651   0.85731   1.000
    H2802   H    0.20733   0.11936   0.90886   1.000
    H2803   H    0.21858   0.08110   0.89363   1.000
    H2804   H    0.20232   0.05541   0.90871   1.000
    H2805   H    0.17459   0.04228   0.92371   1.000
    H2806   H    0.15110   0.09765   0.92871   1.000
    H2807   H    0.17844   0.11079   0.91361   1.000
    C2808   C    0.25257   0.64330   0.38497   1.000
    C2809   C    0.23674   0.63607   0.39370   1.000
    C2810   C    0.23064   0.61786   0.38990   1.000
    C2811   C    0.24047   0.60714   0.37666   1.000
    C2812   C    0.25636   0.61439   0.36790   1.000
    C2813   C    0.26269   0.63249   0.37209   1.000
    C2814   C    0.21376   0.61094   0.39970   1.000
    C2815   C    0.20950   0.59277   0.40161   1.000
    C2816   C    0.19271   0.58574   0.41159   1.000
    C2817   C    0.19137   0.56645   0.41511   1.000
    C2818   C    0.17564   0.55899   0.42391   1.000
    C2819   C    0.16092   0.57071   0.42949   1.000
    C2820   C    0.16225   0.59001   0.42619   1.000
    C2821   C    0.17788   0.59746   0.41723   1.000
    H2822   H    0.25675   0.65743   0.38830   1.000
    H2823   H    0.22929   0.64475   0.40360   1.000
    H2824   H    0.23590   0.59328   0.37280   1.000
    H2825   H    0.26375   0.60571   0.35799   1.000
    H2826   H    0.20515   0.62144   0.40628   1.000
    H2827   H    0.21898   0.58234   0.39613   1.000
    H2828   H    0.20249   0.55706   0.41091   1.000
    H2829   H    0.17495   0.54405   0.42635   1.000
    H2830   H    0.15090   0.59928   0.43002   1.000
    H2831   H    0.17788   0.61231   0.41448   1.000
    C2832   C    0.75968   0.10688   0.36168   1.000
    C2833   C    0.74431   0.09776   0.36958   1.000
    C2834   C    0.73483   0.10549   0.38487   1.000
    C2835   C    0.74133   0.12248   0.39233   1.000
    C2836   C    0.75667   0.13161   0.38443   1.000
    C2837   C    0.76608   0.12396   0.36898   1.000
    C2838   C    0.71871   0.09516   0.39295   1.000
    C2839   C    0.70557   0.10322   0.40365   1.000
    C2840   C    0.68939   0.09312   0.41188   1.000
    C2841   C    0.67425   0.10371   0.41852   1.000
    C2842   C    0.65884   0.09500   0.42673   1.000
    C2843   C    0.65821   0.07545   0.42858   1.000
    C2844   C    0.67335   0.06479   0.42202   1.000
    C2845   C    0.68884   0.07351   0.41386   1.000
    H2846   H    0.76657   0.10039   0.34993   1.000
    H2847   H    0.73976   0.08460   0.36365   1.000
    H2848   H    0.73492   0.12868   0.40449   1.000
    H2849   H    0.76113   0.14465   0.39058   1.000
    H2850   H    0.71737   0.08058   0.38920   1.000
    H2851   H    0.70610   0.11814   0.40602   1.000
    H2852   H    0.67430   0.11881   0.41728   1.000
    H2853   H    0.64728   0.10359   0.43141   1.000
    H2854   H    0.67336   0.04972   0.42352   1.000
    H2855   H    0.70040   0.06480   0.40951   1.000
    C2856   C    0.76589   0.60495   0.87156   1.000
    C2857   C    0.75113   0.59553   0.88010   1.000
    C2858   C    0.73824   0.60521   0.89119   1.000
    C2859   C    0.74078   0.62451   0.89411   1.000
    C2860   C    0.75572   0.63394   0.88571   1.000
    C2861   C    0.76830   0.62427   0.87417   1.000
    C2862   C    0.72269   0.59458   0.89973   1.000
    C2863   C    0.70594   0.60219   0.90341   1.000
    C2864   C    0.68991   0.59174   0.91147   1.000
    C2865   C    0.67466   0.60207   0.91822   1.000
    C2866   C    0.65922   0.59307   0.92601   1.000
    C2867   C    0.65862   0.57345   0.92725   1.000
    C2868   C    0.67366   0.56303   0.92016   1.000
    C2869   C    0.68913   0.57204   0.91231   1.000
    H2870   H    0.77552   0.59699   0.86305   1.000
    H2871   H    0.74962   0.58063   0.87783   1.000
    H2872   H    0.73144   0.63232   0.90306   1.000
    H2873   H    0.75726   0.64881   0.88803   1.000
    H2874   H    0.72515   0.57989   0.90231   1.000
    H2875   H    0.70372   0.61687   0.90038   1.000
    H2876   H    0.67471   0.61721   0.91756   1.000
    H2877   H    0.64766   0.60151   0.93095   1.000
    H2878   H    0.67358   0.54790   0.92091   1.000
    H2879   H    0.70022   0.56340   0.90683   1.000
    C2880   C    0.25544   0.85698   0.11122   1.000
    C2881   C    0.23955   0.86409   0.10227   1.000
    C2882   C    0.23189   0.88137   0.10754   1.000
    C2883   C    0.24031   0.89125   0.12229   1.000
    C2884   C    0.25623   0.88416   0.13122   1.000
    C2885   C    0.26405   0.86695   0.12578   1.000
    C2886   C    0.21482   0.88816   0.09778   1.000
    C2887   C    0.20922   0.90610   0.09776   1.000
    C2888   C    0.19200   0.91294   0.08827   1.000
    C2889   C    0.19003   0.93223   0.08504   1.000
    C2890   C    0.17383   0.93944   0.07676   1.000
    C2891   C    0.15918   0.92749   0.07153   1.000
    C2892   C    0.16109   0.90819   0.07471   1.000
    C2893   C    0.17725   0.90097   0.08309   1.000
    H2894   H    0.26084   0.84360   0.10672   1.000
    H2895   H    0.23323   0.85606   0.09113   1.000
    H2896   H    0.23456   0.90430   0.12728   1.000
    H2897   H    0.26233   0.89226   0.14240   1.000
    H2898   H    0.20710   0.87796   0.08975   1.000
    H2899   H    0.21786   0.91655   0.10442   1.000
    H2900   H    0.20108   0.94179   0.08898   1.000
    H2901   H    0.17276   0.95437   0.07440   1.000
    H2902   H    0.14984   0.89871   0.07119   1.000
    H2903   H    0.17780   0.88612   0.08586   1.000
    C2904   C    0.25638   0.38635   0.64249   1.000
    C2905   C    0.24061   0.39521   0.63508   1.000
    C2906   C    0.23337   0.38993   0.61767   1.000
    C2907   C    0.24209   0.37522   0.60795   1.000
    C2908   C    0.25792   0.36633   0.61538   1.000
    C2909   C    0.26533   0.37184   0.63272   1.000
    C2910   C    0.21652   0.39983   0.61056   1.000
    C2911   C    0.21136   0.40014   0.59252   1.000
    C2912   C    0.19461   0.41028   0.58545   1.000
    C2913   C    0.19331   0.41408   0.56624   1.000
    C2914   C    0.17758   0.42307   0.55882   1.000
    C2915   C    0.16275   0.42846   0.57047   1.000
    C2916   C    0.16402   0.42476   0.58970   1.000
    C2917   C    0.17970   0.41566   0.59711   1.000
    H2918   H    0.26142   0.39094   0.65596   1.000
    H2919   H    0.23408   0.40636   0.64298   1.000
    H2920   H    0.23666   0.37028   0.59476   1.000
    H2921   H    0.26432   0.35518   0.60745   1.000
    H2922   H    0.20869   0.40791   0.62061   1.000
    H2923   H    0.22010   0.39337   0.58224   1.000
    H2924   H    0.20449   0.41002   0.55690   1.000
    H2925   H    0.17698   0.42581   0.54395   1.000
    H2926   H    0.15260   0.42837   0.59893   1.000
    H2927   H    0.17972   0.41248   0.61187   1.000
    C2928   C    0.75796   0.86192   0.60787   1.000
    C2929   C    0.74278   0.87001   0.59859   1.000
    C2930   C    0.73442   0.88634   0.60543   1.000
    C2931   C    0.74182   0.89470   0.62160   1.000
    C2932   C    0.75701   0.88661   0.63089   1.000
    C2933   C    0.76527   0.87009   0.62417   1.000
    C2934   C    0.71840   0.89444   0.59505   1.000
    C2935   C    0.70565   0.90562   0.60297   1.000
    C2936   C    0.68938   0.91348   0.59282   1.000
    C2937   C    0.67391   0.91946   0.60322   1.000
    C2938   C    0.65836   0.92726   0.59434   1.000
    C2939   C    0.65801   0.92937   0.57483   1.000
    C2940   C    0.67347   0.92343   0.56436   1.000
    C2941   C    0.68909   0.91566   0.57325   1.000
    H2942   H    0.76391   0.84929   0.60211   1.000
    H2943   H    0.73746   0.86339   0.58608   1.000
    H2944   H    0.73619   0.90765   0.62698   1.000
    H2945   H    0.76227   0.89344   0.64327   1.000
    H2946   H    0.71661   0.89012   0.58069   1.000
    H2947   H    0.70649   0.90845   0.61779   1.000
    H2948   H    0.67380   0.91800   0.61828   1.000
    H2949   H    0.64652   0.93149   0.60273   1.000
    H2950   H    0.67363   0.92516   0.54933   1.000
    H2951   H    0.70096   0.91180   0.56477   1.000
    C2952   C    0.76261   0.39190   0.13454   1.000
    C2953   C    0.74752   0.40119   0.12635   1.000
    C2954   C    0.73727   0.39286   0.11192   1.000
    C2955   C    0.74277   0.37506   0.10551   1.000
    C2956   C    0.75794   0.36571   0.11374   1.000
    C2957   C    0.76797   0.37398   0.12845   1.000
    C2958   C    0.72131   0.40348   0.10389   1.000
    C2959   C    0.70731   0.39558   0.09428   1.000
    C2960   C    0.69091   0.40614   0.08704   1.000
    C2961   C    0.67482   0.39608   0.08217   1.000
    C2962   C    0.65911   0.40526   0.07503   1.000
    C2963   C    0.65914   0.42475   0.07250   1.000
    C2964   C    0.67516   0.43492   0.07742   1.000
    C2965   C    0.69096   0.42572   0.08448   1.000
    H2966   H    0.77009   0.39897   0.14557   1.000
    H2967   H    0.74375   0.41495   0.13143   1.000
    H2968   H    0.73563   0.36836   0.09402   1.000
    H2969   H    0.76171   0.35200   0.10860   1.000
    H2970   H    0.72065   0.41823   0.10713   1.000
    H2971   H    0.70718   0.38058   0.09241   1.000
    H2972   H    0.67437   0.38104   0.08394   1.000
    H2973   H    0.64686   0.39709   0.07153   1.000
    H2974   H    0.67561   0.44992   0.07534   1.000
    H2975   H    0.70321   0.43402   0.08747   1.000
    C2976   C    0.74047   0.10859   0.13454   1.000
    C2977   C    0.75553   0.09945   0.12621   1.000
    C2978   C    0.76489   0.10746   0.11100   1.000
    C2979   C    0.75857   0.12483   0.10404   1.000
    C2980   C    0.74344   0.13402   0.11242   1.000
    C2981   C    0.73423   0.12604   0.12783   1.000
    C2982   C    0.78075   0.09692   0.10273   1.000
    C2983   C    0.79395   0.10466   0.09191   1.000
    C2984   C    0.81017   0.09412   0.08433   1.000
    C2985   C    0.82583   0.10424   0.07830   1.000
    C2986   C    0.84136   0.09505   0.07087   1.000
    C2987   C    0.84156   0.07547   0.06918   1.000
    C2988   C    0.82594   0.06527   0.07519   1.000
    C2989   C    0.81033   0.07448   0.08256   1.000
    H2990   H    0.73372   0.10175   0.14618   1.000
    H2991   H    0.75994   0.08603   0.13177   1.000
    H2992   H    0.76500   0.13128   0.09200   1.000
    H2993   H    0.73901   0.14737   0.10679   1.000
    H2994   H    0.78203   0.08237   0.10669   1.000
    H2995   H    0.79356   0.11955   0.08922   1.000
    H2996   H    0.82611   0.11935   0.07943   1.000
    H2997   H    0.85330   0.10328   0.06655   1.000
    H2998   H    0.82563   0.05020   0.07378   1.000
    H2999   H    0.79837   0.06612   0.08643   1.000
    C3000   C    0.75247   0.62084   0.64371   1.000
    C3001   C    0.76888   0.61324   0.63626   1.000
    C3002   C    0.77070   0.61070   0.61694   1.000
    C3003   C    0.75600   0.61627   0.60510   1.000
    C3004   C    0.73982   0.62432   0.61249   1.000
    C3005   C    0.73789   0.62660   0.63186   1.000
    C3006   C    0.78830   0.60304   0.60934   1.000
    C3007   C    0.78855   0.59132   0.59477   1.000
    C3008   C    0.80616   0.58389   0.58698   1.000
    C3009   C    0.80687   0.56534   0.58070   1.000
    C3010   C    0.82335   0.55808   0.57311   1.000
    C3011   C    0.83919   0.56947   0.57116   1.000
    C3012   C    0.83838   0.58815   0.57709   1.000
    C3013   C    0.82205   0.59527   0.58509   1.000
    H3014   H    0.75137   0.62265   0.65867   1.000
    H3015   H    0.78012   0.60919   0.64559   1.000
    H3016   H    0.75720   0.61484   0.59010   1.000
    H3017   H    0.72874   0.62861   0.60308   1.000
    H3018   H    0.80126   0.60651   0.61644   1.000
    H3019   H    0.77548   0.58628   0.58895   1.000
    H3020   H    0.79472   0.55641   0.58189   1.000
    H3021   H    0.82369   0.54366   0.56853   1.000
    H3022   H    0.85048   0.59714   0.57571   1.000
    H3023   H    0.82173   0.60976   0.58943   1.000
    C3024   C    0.24072   0.10662   0.64064   1.000
    C3025   C    0.25591   0.09708   0.63290   1.000
    C3026   C    0.26445   0.10361   0.61654   1.000
    C3027   C    0.25719   0.11971   0.60779   1.000
    C3028   C    0.24203   0.12926   0.61551   1.000
    C3029   C    0.23360   0.12288   0.63207   1.000
    C3030   C    0.28046   0.09299   0.60875   1.000
    C3031   C    0.29328   0.10071   0.59748   1.000
    C3032   C    0.30942   0.09041   0.58958   1.000
    C3033   C    0.32457   0.10080   0.58275   1.000
    C3034   C    0.33991   0.09187   0.57472   1.000
    C3035   C    0.34043   0.07229   0.57321   1.000
    C3036   C    0.32532   0.06182   0.58004   1.000
    C3037   C    0.30990   0.07077   0.58806   1.000
    H3038   H    0.23463   0.10113   0.65331   1.000
    H3039   H    0.26109   0.08459   0.63981   1.000
    H3040   H    0.26290   0.12486   0.59478   1.000
    H3041   H    0.23691   0.14157   0.60833   1.000
    H3042   H    0.28209   0.07862   0.61325   1.000
    H3043   H    0.29251   0.11554   0.59447   1.000
    H3044   H    0.32456   0.11593   0.58369   1.000
    H3045   H    0.35148   0.10029   0.56981   1.000
    H3046   H    0.32527   0.04672   0.57882   1.000
    H3047   H    0.29830   0.06224   0.59260   1.000
    C3048   C    0.24236   0.60830   0.13760   1.000
    C3049   C    0.25759   0.59924   0.12947   1.000
    C3050   C    0.26622   0.60665   0.11354   1.000
    C3051   C    0.25902   0.62323   0.10565   1.000
    C3052   C    0.24377   0.63232   0.11379   1.000
    C3053   C    0.23524   0.62500   0.12990   1.000
    C3054   C    0.28227   0.59640   0.10540   1.000
    C3055   C    0.29511   0.60448   0.09443   1.000
    C3056   C    0.31149   0.59442   0.08670   1.000
    C3057   C    0.32695   0.60494   0.08086   1.000
    C3058   C    0.34264   0.59616   0.07331   1.000
    C3059   C    0.34317   0.57663   0.07131   1.000
    C3060   C    0.32770   0.56604   0.07705   1.000
    C3061   C    0.31194   0.57484   0.08456   1.000
    H3062   H    0.23623   0.60208   0.14991   1.000
    H3063   H    0.26273   0.58640   0.13574   1.000
    H3064   H    0.26485   0.62910   0.09301   1.000
    H3065   H    0.23866   0.64502   0.10731   1.000
    H3066   H    0.28401   0.58193   0.10952   1.000
    H3067   H    0.29430   0.61936   0.09173   1.000
    H3068   H    0.32696   0.62003   0.08227   1.000
    H3069   H    0.35447   0.60466   0.06922   1.000
    H3070   H    0.32765   0.55099   0.07538   1.000
    H3071   H    0.30010   0.56624   0.08828   1.000
    C3072   C    0.74095   0.86209   0.89093   1.000
    C3073   C    0.75627   0.87001   0.90005   1.000
    C3074   C    0.76498   0.88601   0.89286   1.000
    C3075   C    0.75782   0.89416   0.87640   1.000
    C3076   C    0.74247   0.88623   0.86726   1.000
    C3077   C    0.73382   0.87009   0.87440   1.000
    C3078   C    0.78105   0.89400   0.90324   1.000
    C3079   C    0.79392   0.90512   0.89538   1.000
    C3080   C    0.81022   0.91284   0.90560   1.000
    C3081   C    0.82566   0.91896   0.89522   1.000
    C3082   C    0.84122   0.92665   0.90411   1.000
    C3083   C    0.84164   0.92854   0.92364   1.000
    C3084   C    0.82621   0.92245   0.93409   1.000
    C3085   C    0.81059   0.91478   0.92518   1.000
    H3086   H    0.73473   0.84974   0.89701   1.000
    H3087   H    0.76139   0.86352   0.91277   1.000
    H3088   H    0.76372   0.90684   0.87068   1.000
    H3089   H    0.73738   0.89291   0.85467   1.000
    H3090   H    0.78274   0.88969   0.91764   1.000
    H3091   H    0.79315   0.90802   0.88056   1.000
    H3092   H    0.82575   0.91769   0.88015   1.000
    H3093   H    0.85302   0.93097   0.89570   1.000
    H3094   H    0.82607   0.92400   0.94913   1.000
    H3095   H    0.79876   0.91081   0.93368   1.000
    C3096   C    0.74390   0.35769   0.38847   1.000
    C3097   C    0.75971   0.36513   0.39717   1.000
    C3098   C    0.76726   0.38224   0.39128   1.000
    C3099   C    0.75878   0.39162   0.37614   1.000
    C3100   C    0.74292   0.38418   0.36743   1.000
    C3101   C    0.73521   0.36713   0.37352   1.000
    C3102   C    0.78422   0.38936   0.40095   1.000
    C3103   C    0.78981   0.40727   0.40041   1.000
    C3104   C    0.80670   0.41436   0.41026   1.000
    C3105   C    0.80840   0.43370   0.41316   1.000
    C3106   C    0.82423   0.44110   0.42190   1.000
    C3107   C    0.83879   0.42931   0.42792   1.000
    C3108   C    0.83715   0.40995   0.42506   1.000
    C3109   C    0.82136   0.40254   0.41623   1.000
    H3110   H    0.73862   0.34446   0.39352   1.000
    H3111   H    0.76604   0.35747   0.40864   1.000
    H3112   H    0.76444   0.40455   0.37072   1.000
    H3113   H    0.73676   0.39185   0.35592   1.000
    H3114   H    0.79179   0.37944   0.40953   1.000
    H3115   H    0.78134   0.41751   0.39313   1.000
    H3116   H    0.79742   0.44315   0.40863   1.000
    H3117   H    0.82507   0.45607   0.42399   1.000
    H3118   H    0.84834   0.40057   0.42918   1.000
    H3119   H    0.82103   0.38765   0.41376   1.000
    C3120   C    0.24062   0.89221   0.35954   1.000
    C3121   C    0.25593   0.90161   0.36724   1.000
    C3122   C    0.26476   0.89482   0.38341   1.000
    C3123   C    0.25769   0.87859   0.39198   1.000
    C3124   C    0.24240   0.86920   0.38430   1.000
    C3125   C    0.23366   0.87584   0.36796   1.000
    C3126   C    0.28086   0.90532   0.39121   1.000
    C3127   C    0.29386   0.89743   0.40225   1.000
    C3128   C    0.31006   0.90761   0.41023   1.000
    C3129   C    0.32534   0.89713   0.41681   1.000
    C3130   C    0.34073   0.90595   0.42491   1.000
    C3131   C    0.34117   0.92550   0.42673   1.000
    C3132   C    0.32591   0.93606   0.42018   1.000
    C3133   C    0.31045   0.92722   0.41209   1.000
    H3134   H    0.23431   0.89788   0.34701   1.000
    H3135   H    0.26096   0.91419   0.36045   1.000
    H3136   H    0.26362   0.87324   0.40484   1.000
    H3137   H    0.23743   0.85680   0.39137   1.000
    H3138   H    0.28236   0.91975   0.38692   1.000
    H3139   H    0.29320   0.88256   0.40506   1.000
    H3140   H    0.32541   0.88203   0.41562   1.000
    H3141   H    0.35240   0.89745   0.42958   1.000
    H3142   H    0.32578   0.95113   0.42165   1.000
    H3143   H    0.29876   0.93581   0.40775   1.000
    C3144   C    0.24431   0.35835   0.89138   1.000
    C3145   C    0.26000   0.36572   0.90040   1.000
    C3146   C    0.26832   0.38230   0.89403   1.000
    C3147   C    0.26083   0.39115   0.87809   1.000
    C3148   C    0.24513   0.38378   0.86907   1.000
    C3149   C    0.23659   0.36732   0.87563   1.000
    C3150   C    0.28507   0.38949   0.90398   1.000
    C3151   C    0.29071   0.40738   0.90312   1.000
    C3152   C    0.30750   0.41472   0.91291   1.000
    C3153   C    0.30924   0.43416   0.91512   1.000
    C3154   C    0.32507   0.44182   0.92362   1.000
    C3155   C    0.33958   0.43022   0.93009   1.000
    C3156   C    0.33787   0.41076   0.92795   1.000
    C3157   C    0.32207   0.40308   0.91938   1.000
    H3158   H    0.23833   0.34558   0.89682   1.000
    H3159   H    0.26559   0.35848   0.91250   1.000
    H3160   H    0.26717   0.40358   0.87228   1.000
    H3161   H    0.23980   0.39107   0.85693   1.000
    H3162   H    0.29242   0.37973   0.91295   1.000
    H3163   H    0.28234   0.41744   0.89546   1.000
    H3164   H    0.29831   0.44348   0.91020   1.000
    H3165   H    0.32595   0.45686   0.92517   1.000
    H3166   H    0.34902   0.40149   0.93244   1.000
    H3167   H    0.32168   0.38810   0.91745   1.000
loop_
    _geom_bond_atom_site_label_1
    _geom_bond_atom_site_label_2
    _geom_bond_distance
    _geom_bond_site_symmetry_2
    _ccdc_geom_bond_type
    H1118  C1104     1.08064      .   S
    C1109  C1104     1.40719      .   S
    C1109  C1108     1.40640      .   S
    C2165  C2160     1.41087      .   S
    C2165  C2164     1.41034      .   S
    C2045  C2040     1.41141      .   S
    C2045  C2044     1.41048      .   S
    H2054  C2040     1.07912      .   S
    C2141  C2136     1.41182      .   S
    C2141  C2140     1.40925      .   S
    H2174  C2160     1.08067      .   S
    H2150  C2136     1.07980      .   S
    H1193  C1180     1.08191      .   S
    C1181  C1180     1.40670      .   S
    C1181  C1176     1.40592      .   S
    H2177  C2164     1.08040      .   S
    C2069  C2064     1.41053      .   S
    C2069  C2068     1.41044      .   S
    H1121  C1108     1.08130      .   S
    C1085  C1080     1.40632      .   S
    C1085  C1084     1.40573      .   S
    H2057  C2044     1.08143      .   S
    C1205  C1204     1.40635      .   S
    C1205  C1200     1.40641      .   S
    C1104  C1105     1.39615      .   S
    H2078  C2064     1.08025      .   S
    H1094  C1080     1.08065      .   S
    H2153  C2140     1.08093      .   S
    H1217  C1204     1.08167      .   S
    H1097  C1084     1.08112      .   S
    H2081  C2068     1.08147      .   S
    C2040  C2041     1.39419      .   S
    H1214  C1200     1.08065      .   S
    C2160  C2161     1.39790      .   S
    C1108  C1107     1.40088      .   S
    C2136  C2137     1.39415      .   S
    C2164  C2163     1.39752      .   S
    C2044  C2043     1.40168      .   S
    H1190  C1176     1.08117      .   S
    C1180  C1179     1.40320      .   S
    C2140  C2139     1.40064      .   S
    C2064  C2065     1.39502      .   S
    C1080  C1081     1.39621      .   S
    C1084  C1083     1.39796      .   S
    C2068  C2067     1.39869      .   S
    C1204  C1203     1.39874      .   S
    C1200  C1201     1.39435      .   S
    C1176  C1177     1.39501      .   S
    C1105  H1119     1.08351      .   S
    C1105  C1106     1.40131      .   S
    C2041  H2055     1.08361      .   S
    C2041  C2042     1.39905      .   S
    C2161  H2175     1.08343      .   S
    C2161  C2162     1.40167      .   S
    C2137  H2151     1.08368      .   S
    C2137  C2138     1.39901      .   S
    C1107  C1106     1.40877      .   S
    C1107  H1120     1.08108      .   S
    C2163  H2176     1.08149      .   S
    C2163  C2162     1.40603      .   S
    C2043  H2056     1.08120      .   S
    C2043  C2042     1.40806      .   S
    C2139  H2152     1.08125      .   S
    C2139  C2138     1.40721      .   S
    C1179  H1192     1.08067      .   S
    C1179  C1178     1.41069      .   S
    C1081  H1095     1.08376      .   S
    C1081  C1082     1.40233      .   S
    C2065  H2079     1.08378      .   S
    C2065  C2066     1.39999      .   S
    C1083  H1096     1.08094      .   S
    C1083  C1082     1.40753      .   S
    C2067  H2080     1.08153      .   S
    C2067  C2066     1.40672      .   S
    C1203  H1216     1.08168      .   S
    C1203  C1202     1.40785      .   S
    C1201  H1215     1.08417      .   S
    C1201  C1202     1.40156      .   S
    C1177  C1178     1.40197      .   S
    C1177  H1191     1.08304      .   S
    C1106  C1110     1.48693      .   S
    C2042  C2046     1.48443      .   S
    C2162  C2166     1.48461      .   S
    C2138  C2142     1.48298      .   S
    C1082  C1086     1.48267      .   S
    C2066  C2070     1.48242      .   S
    C1178  C1182     1.48712      .   S
    C1202  C1206     1.48251      .   S
    C1110  H1122     1.08096      .   S
    C1110  C1111     1.34158      .   S
    C2046  H2058     1.08168      .   S
    C2046  C2047     1.34024      .   S
    C2166  H2178     1.08157      .   S
    C2166  C2167     1.34192      .   S
    C2142  H2154     1.08140      .   S
    C2142  C2143     1.34032      .   S
    H1195  C1183     1.08149      .   S
    H1099  C1087     1.08154      .   S
    H2083  C2071     1.08257      .   S
    H1219  C1207     1.08232      .   S
    C1086  C1087     1.34211      .   S
    C1086  H1098     1.08136      .   S
    C2070  C2071     1.34067      .   S
    C2070  H2082     1.08186      .   S
    C1182  C1183     1.34250      .   S
    C1182  H1194     1.08052      .   S
    C1206  C1207     1.34152      .   S
    C1206  H1218     1.08138      .   S
    C1087  C1088     1.48322      .   S
    C1183  C1184     1.49048      .   S
    C2071  C2072     1.48299      .   S
    C1207  C1208     1.48443      .   S
    H1123  C1111     1.08223      .   S
    H2179  C2167     1.08218      .   S
    C1111  C1112     1.48702      .   S
    H2059  C2047     1.08150      .   S
    C2167  C2168     1.48392      .   S
    C2047  C2048     1.48507      .   S
    H2155  C2143     1.08182      .   S
    C2143  C2144     1.48459      .   S
    H1196  C1185     1.08310      .   S
    H1127  C1117     1.08034      .   S
    H2084  C2073     1.08382      .   S
    H2063  C2053     1.08110      .   S
    H1220  C1209     1.08307      .   S
    H2183  C2173     1.08055      .   S
    H1100  C1089     1.08390      .   S
    H2159  C2149     1.08091      .   S
    C1184  C1185     1.40452      .   S
    C1184  C1189     1.41047      .   S
    C1088  C1089     1.40375      .   S
    C1088  C1093     1.40916      .   S
    C2072  C2073     1.40371      .   S
    C2072  C2077     1.40859      .   S
    C1208  C1209     1.40369      .   S
    C1208  C1213     1.40900      .   S
    C1185  C1186     1.39817      .   S
    C1112  C1117     1.41064      .   S
    C1112  C1113     1.40327      .   S
    C2073  C2074     1.39719      .   S
    C1117  C1116     1.40091      .   S
    C2168  C2173     1.40942      .   S
    C2168  C2169     1.40331      .   S
    C1209  C1210     1.39707      .   S
    C1089  C1090     1.39758      .   S
    C2048  C2053     1.41019      .   S
    C2048  C2049     1.40250      .   S
    C2173  C2172     1.39969      .   S
    C2053  C2052     1.39931      .   S
    C2144  C2149     1.40993      .   S
    C2144  C2145     1.40223      .   S
    C2149  C2148     1.40000      .   S
    H1103  C1093     1.08028      .   S
    C1093  C1092     1.39623      .   S
    C1189  H1199     1.08047      .   S
    C1189  C1188     1.39981      .   S
    H2087  C2077     1.08115      .   S
    C2077  C2076     1.39707      .   S
    H1223  C1213     1.08058      .   S
    C1213  C1212     1.39778      .   S
    H1124  C1113     1.08416      .   S
    C1186  H1197     1.08304      .   S
    C1186  C1187     1.40493      .   S
    C1113  C1114     1.39557      .   S
    H2180  C2169     1.08278      .   S
    C2169  C2170     1.39595      .   S
    C2074  H2085     1.08326      .   S
    C2074  C2075     1.40490      .   S
    H1126  C1116     1.08298      .   S
    C1116  C1115     1.40415      .   S
    C1210  H1221     1.08336      .   S
    C1210  C1211     1.40411      .   S
    C2049  H2060     1.08304      .   S
    C2049  C2050     1.39619      .   S
    C1090  H1101     1.08253      .   S
    C1090  C1091     1.40353      .   S
    C2172  H2182     1.08270      .   S
    C2172  C2171     1.40500      .   S
    H2062  C2052     1.08339      .   S
    C2052  C2051     1.40380      .   S
    C2145  H2156     1.08331      .   S
    C2145  C2146     1.39486      .   S
    H2158  C2148     1.08319      .   S
    C2148  C2147     1.40355      .   S
    C1188  C1187     1.40332      .   S
    C1188  H1198     1.08323      .   S
    C2076  C2075     1.40415      .   S
    C2076  H2086     1.08280      .   S
    C1092  C1091     1.40358      .   S
    C1092  H1102     1.08296      .   S
    C1212  C1211     1.40318      .   S
    C1212  H1222     1.08320      .   S
    C1187  C311      1.48586      .   S
    C2075  C509      1.48268      .   S
    C1211  C527      1.48172      .   S
    C1114  C1115     1.40589      .   S
    C1114  H1125     1.08288      .   S
    C1091  C308      1.48148      .   S
    C2170  C2171     1.40509      .   S
    C2170  H2181     1.08303      .   S
    C1115  C524      1.48571      .   S
    C2171  C506      1.48446      .   S
    C2050  C2051     1.40572      .   S
    C2050  H2061     1.08265      .   S
    C2051  C293      1.48453      .   S
    C2146  C2147     1.40529      .   S
    C2146  H2157     1.08297      .   S
    C2147  C290      1.48237      .   S
    H1406  C1392     1.08111      .   S
    H1598  C1584     1.08137      .   S
    H3134  C3120     1.08088      .   S
    H2462  C2448     1.07974      .   S
    H1790  C1776     1.08084      .   S
    H2846  C2832     1.08125      .   S
    H1574  C1560     1.08033      .   S
    H1385  C1372     1.08065      .   S
    H2657  C2644     1.08112      .   S
    H1886  C1872     1.08052      .   S
    H2441  C2428     1.08015      .   S
    H2633  C2620     1.08144      .   S
    H1769  C1756     1.08128      .   S
    H3113  C3100     1.08109      .   S
    C311   C238      1.40370      .   S
    C311   C256      1.40715      .   S
    C509   C436      1.40372      .   S
    C509   C487      1.40607      .   S
    C524   C469      1.40689      .   S
    C524   C451      1.40391      .   S
    C527   C472      1.40260      .   S
    C527   C454      1.40441      .   S
    C506   C490      1.40547      .   S
    C506   C433      1.40476      .   S
    C308   C235      1.40342      .   S
    C308   C253      1.40332      .   S
    H2825  C2812     1.08200      .   S
    H239   C238      1.08394      .   S
    C293   C271      1.40556      .   S
    C293   C220      1.40219      .   S
    H437   C436      1.08364      .   S
    H1407  C1393     1.08398      .   S
    C1392  C1393     1.39487      .   S
    C1392  C1397     1.40626      .   S
    H257   C256      1.08318      .   S
    C290   C274      1.40515      .   S
    C290   C217      1.40121      .   S
    H470   C469      1.08321      .   S
    H488   C487      1.08284      .   S
    H452   C451      1.08346      .   S
    H1862  C1848     1.07965      .   S
    H491   C490      1.08321      .   S
    H236   C235      1.08341      .   S
    H473   C472      1.08278      .   S
    C1584  C1589     1.40711      .   S
    C1584  C1585     1.39679      .   S
    H455   C454      1.08356      .   S
    C3120  C3121     1.39908      .   S
    C3120  C3125     1.40741      .   S
    H272   C271      1.08346      .   S
    H434   C433      1.08293      .   S
    H254   C253      1.08366      .   S
    H3135  C3121     1.08368      .   S
    H275   C274      1.08332      .   S
    H1599  C1585     1.08383      .   S
    H218   C217      1.08291      .   S
    H221   C220      1.08327      .   S
    C2448  C2449     1.39614      .   S
    C2448  C2453     1.41095      .   S
    C2832  C2837     1.40681      .   S
    C2832  C2833     1.39901      .   S
    C1776  C1781     1.40703      .   S
    C1776  C1777     1.39461      .   S
    H2463  C2449     1.08361      .   S
    C1560  C1565     1.40781      .   S
    C1560  C1561     1.39605      .   S
    H1791  C1777     1.08318      .   S
    H2847  C2833     1.08376      .   S
    H1575  C1561     1.08339      .   S
    C238   C237      1.40324      .   S
    C436   C435      1.40378      .   S
    C256   C255      1.40818      .   S
    C469   C468      1.40924      .   S
    C451   C450      1.40265      .   S
    C490   C489      1.40614      .   S
    C487   C486      1.40530      .   S
    C472   C471      1.40309      .   S
    C433   C432      1.40396      .   S
    C454   C453      1.40551      .   S
    C235   C234      1.40500      .   S
    C1872  C1877     1.40659      .   S
    C1872  C1873     1.39359      .   S
    C1393  C1394     1.40116      .   S
    C271   C270      1.40821      .   S
    C253   C252      1.40392      .   S
    C1372  C1373     1.41059      .   S
    C1372  C1371     1.40127      .   S
    C1756  C1757     1.40706      .   S
    C1756  C1755     1.40196      .   S
    C274   C273      1.40815      .   S
    C2644  C2645     1.41026      .   S
    C2644  C2643     1.40228      .   S
    C3121  C3122     1.40260      .   S
    C220   C219      1.40225      .   S
    C217   C216      1.40162      .   S
    C1589  C1588     1.40712      .   S
    C3100  C3101     1.40750      .   S
    C3100  C3099     1.40004      .   S
    C1585  C1586     1.40218      .   S
    C2428  C2429     1.41101      .   S
    C2428  C2427     1.39793      .   S
    C2812  C2813     1.40493      .   S
    C2812  C2811     1.39909      .   S
    C3125  C3124     1.40618      .   S
    C2620  C2621     1.40674      .   S
    C2620  C2619     1.39942      .   S
    C1397  C1396     1.40591      .   S
    C1848  C1853     1.40762      .   S
    C1848  C1849     1.39518      .   S
    C2837  C2836     1.40753      .   S
    H1887  C1873     1.08358      .   S
    C2449  C2450     1.40006      .   S
    C2833  C2834     1.40319      .   S
    C1781  C1780     1.40591      .   S
    C1777  C1778     1.40120      .   S
    C2453  C2452     1.41024      .   S
    C1565  C1564     1.40596      .   S
    C1561  C1562     1.40177      .   S
    H1384  C1371     1.08089      .   S
    H3112  C3099     1.08134      .   S
    H2656  C2643     1.08158      .   S
    H2440  C2427     1.08132      .   S
    H1768  C1755     1.08048      .   S
    H2632  C2619     1.08104      .   S
    C1757  C1752     1.40675      .   S
    C2813  C2808     1.40581      .   S
    C1877  C1876     1.40534      .   S
    H1863  C1849     1.08376      .   S
    C1853  C1852     1.40626      .   S
    H2824  C2811     1.08064      .   S
    C1373  C1368     1.41190      .   S
    C3101  C3096     1.40667      .   S
    C2645  C2640     1.41153      .   S
    C2429  C2424     1.41038      .   S
    C1873  C1874     1.40077      .   S
    C2621  C2616     1.40743      .   S
    C1755  C1754     1.40992      .   S
    C1371  C1370     1.40793      .   S
    C3099  C3098     1.40851      .   S
    C1849  C1850     1.40119      .   S
    C2643  C2642     1.40796      .   S
    C2811  C2810     1.40897      .   S
    C2427  C2426     1.40582      .   S
    C2619  C2618     1.40750      .   S
    H1388  C1377     1.08371      .   S
    H1387  C1375     1.08170      .   S
    H1410  C1398     1.08087      .   S
    H2659  C2647     1.08176      .   S
    H2660  C2649     1.08372      .   S
    C468   C522      1.40630      .   S
    C237   C309      1.40502      .   S
    C450   C522      1.40506      .   S
    C489   C504      1.40745      .   S
    H2636  C2625     1.08343      .   S
    C435   C507      1.40443      .   S
    C255   C309      1.40571      .   S
    H2635  C2623     1.08207      .   S
    C432   C504      1.40466      .   S
    C486   C507      1.40522      .   S
    C270   C291      1.40617      .   S
    C471   C525      1.40443      .   S
    C453   C525      1.40591      .   S
    C1394  C1398     1.48226      .   S
    C1394  C1395     1.40819      .   S
    C234   C306      1.40606      .   S
    C3122  C3126     1.48488      .   S
    C3122  C3123     1.40658      .   S
    C273   C288      1.40975      .   S
    C216   C288      1.40576      .   S
    C219   C291      1.40337      .   S
    C1586  C1590     1.48674      .   S
    C1586  C1587     1.40856      .   S
    C1588  H1601     1.08141      .   S
    C1588  C1587     1.39997      .   S
    C252   C306      1.40542      .   S
    C3124  H3137     1.08080      .   S
    C3124  C3123     1.39705      .   S
    C2836  H2849     1.08073      .   S
    C2836  C2835     1.39766      .   S
    C2834  C2835     1.40790      .   S
    C2834  C2838     1.48780      .   S
    C1852  H1865     1.08081      .   S
    C1852  C1851     1.40169      .   S
    C2808  H2822     1.08130      .   S
    C2808  C2809     1.39410      .   S
    C1396  C1395     1.39865      .   S
    C1396  H1409     1.08150      .   S
    C2450  C2454     1.48288      .   S
    C2450  C2451     1.40693      .   S
    C1562  C1566     1.48475      .   S
    C1562  C1563     1.40864      .   S
    C1564  H1577     1.08107      .   S
    C1564  C1563     1.39931      .   S
    C1778  C1782     1.48049      .   S
    C1778  C1779     1.40763      .   S
    C1780  H1793     1.08079      .   S
    C1780  C1779     1.39677      .   S
    C1752  H1766     1.08049      .   S
    C1752  C1753     1.39583      .   S
    H3138  C3126     1.08118      .   S
    C2452  H2465     1.08107      .   S
    C2452  C2451     1.39823      .   S
    H1602  C1590     1.08100      .   S
    C1876  H1889     1.08226      .   S
    C1876  C1875     1.40067      .   S
    C1850  C1851     1.40988      .   S
    C1850  C1854     1.48743      .   S
    H2466  C2454     1.08148      .   S
    C3096  H3110     1.08084      .   S
    C3096  C3097     1.39683      .   S
    H1415  C1405     1.08009      .   S
    C1874  C1875     1.40927      .   S
    C1874  C1878     1.48289      .   S
    H2850  C2838     1.08158      .   S
    H1578  C1566     1.08186      .   S
    C522   H523      1.08299      .   S
    C1368  H1382     1.07963      .   S
    C1368  C1369     1.39532      .   S
    C2810  C2809     1.40122      .   S
    C2810  C2814     1.48289      .   S
    C309   H310      1.08279      .   S
    C504   H505      1.08304      .   S
    H1794  C1782     1.08156      .   S
    C1754  C1753     1.40172      .   S
    C1754  C1758     1.48679      .   S
    C507   H508      1.08331      .   S
    C2424  H2438     1.08062      .   S
    C2424  C2425     1.39682      .   S
    C1398  C1399     1.34107      .   S
    C2640  H2654     1.07930      .   S
    C2640  C2641     1.39352      .   S
    C525   H526      1.08280      .   S
    C3126  C3127     1.34139      .   S
    C291   H292      1.08262      .   S
    C3098  C3097     1.40240      .   S
    C3098  C3102     1.48696      .   S
    C288   H289      1.08334      .   S
    C1590  C1591     1.34198      .   S
    C1587  H1600     1.08101      .   S
    C2616  H2630     1.08037      .   S
    C2616  C2617     1.39818      .   S
    C306   H307      1.08339      .   S
    C3123  H3136     1.08151      .   S
    C1370  C1369     1.39984      .   S
    C1370  C1374     1.48544      .   S
    C2835  H2848     1.08071      .   S
    C1395  H1408     1.08101      .   S
    C1851  H1864     1.08044      .   S
    C2426  C2425     1.40134      .   S
    C2426  C2430     1.48347      .   S
    C2838  C2839     1.34368      .   S
    C2642  C2641     1.39863      .   S
    C2642  C2646     1.48404      .   S
    H3115  C3103     1.08120      .   S
    C2454  C2455     1.34032      .   S
    C1566  C1567     1.34120      .   S
    C1563  H1576     1.08116      .   S
    H1890  C1878     1.08151      .   S
    C2809  H2823     1.08363      .   S
    H1771  C1759     1.08126      .   S
    C2618  C2617     1.40272      .   S
    C2618  C2622     1.48617      .   S
    C1782  C1783     1.34006      .   S
    C1779  H1792     1.08182      .   S
    H1866  C1854     1.07936      .   S
    H2443  C2431     1.08192      .   S
    C2451  H2464     1.08166      .   S
    C1375  C1374     1.34113      .   S
    C1375  C1376     1.48588      .   S
    C1753  H1767     1.08383      .   S
    C1377  C1378     1.39624      .   S
    C1377  C1376     1.40245      .   S
    C1875  H1888     1.08108      .   S
    C1854  C1855     1.34254      .   S
    C2647  C2646     1.34013      .   S
    C2647  C2648     1.48503      .   S
    H2827  C2815     1.08177      .   S
    H1389  C1378     1.08286      .   S
    C2649  C2650     1.39580      .   S
    C2649  C2648     1.40204      .   S
    C2625  C2626     1.39589      .   S
    C2625  C2624     1.40362      .   S
    C2623  C2622     1.34221      .   S
    C2623  C2624     1.48692      .   S
    C1878  C1879     1.33965      .   S
    C3097  H3111     1.08354      .   S
    H2661  C2650     1.08314      .   S
    H2637  C2626     1.08309      .   S
    C1369  H1383     1.08416      .   S
    C2425  H2439     1.08386      .   S
    C2814  C2815     1.34162      .   S
    C2814  H2826     1.07978      .   S
    C2641  H2655     1.08375      .   S
    C1758  C1759     1.34279      .   S
    C1758  H1770     1.08133      .   S
    C3103  C3102     1.34274      .   S
    C3103  C3104     1.48819      .   S
    C1759  C1760     1.48914      .   S
    C3102  H3114     1.08064      .   S
    C2617  H2631     1.08351      .   S
    C2815  C2816     1.48646      .   S
    H1414  C1404     1.08290      .   S
    C2431  C2430     1.34178      .   S
    C2431  C2432     1.48485      .   S
    C3127  H3139     1.08255      .   S
    C3127  C3128     1.48389      .   S
    C1374  H1386     1.08201      .   S
    C2430  H2442     1.08129      .   S
    C1591  H1603     1.08218      .   S
    C1591  C1592     1.48667      .   S
    C2646  H2658     1.08186      .   S
    C2839  H2851     1.08132      .   S
    C2839  C2840     1.48728      .   S
    C1567  H1579     1.08233      .   S
    C1567  C1568     1.48549      .   S
    C1405  C1404     1.39676      .   S
    C1405  C1400     1.40929      .   S
    C1855  H1867     1.08100      .   S
    C1855  C1856     1.48895      .   S
    C1378  C1379     1.40609      .   S
    C2455  H2467     1.08264      .   S
    C2455  C2456     1.48330      .   S
    C2622  H2634     1.08141      .   S
    C1783  H1795     1.08196      .   S
    C1783  C1784     1.48075      .   S
    C1376  C1381     1.41008      .   S
    C2650  C2651     1.40650      .   S
    C2626  C2627     1.40514      .   S
    C2648  C2653     1.41128      .   S
    C1879  H1891     1.08230      .   S
    C1879  C1880     1.48419      .   S
    C2624  C2629     1.40946      .   S
    H1607  C1597     1.08020      .   S
    H3143  C3133     1.08078      .   S
    C1399  C1400     1.48383      .   S
    C1399  H1411     1.08183      .   S
    H3116  C3105     1.08327      .   S
    H2471  C2461     1.08114      .   S
    H1583  C1573     1.08053      .   S
    H2855  C2845     1.08083      .   S
    H1772  C1761     1.08304      .   S
    C3128  C3133     1.40901      .   S
    C3128  C3129     1.40338      .   S
    C3104  C3105     1.40429      .   S
    C3104  C3109     1.40995      .   S
    H2444  C2433     1.08359      .   S
    C1592  C1597     1.41010      .   S
    C1592  C1593     1.40367      .   S
    H1871  C1861     1.07923      .   S
    H2828  C2817     1.08322      .   S
    C1760  C1761     1.40445      .   S
    C1760  C1765     1.40981      .   S
    H1799  C1789     1.08111      .   S
    C1404  C1403     1.40412      .   S
    C1568  C1573     1.41010      .   S
    C1568  C1569     1.40345      .   S
    C2816  C2817     1.40474      .   S
    C2816  C2821     1.41061      .   S
    C1856  C1861     1.41234      .   S
    C1856  C1857     1.40462      .   S
    C2840  C2845     1.40936      .   S
    C2840  C2841     1.40438      .   S
    C1597  C1596     1.40122      .   S
    C2456  C2461     1.40977      .   S
    C2456  C2457     1.40201      .   S
    C3133  C3132     1.40002      .   S
    C2432  C2433     1.40377      .   S
    C2432  C2437     1.40863      .   S
    C1784  C1789     1.40906      .   S
    C1784  C1785     1.40249      .   S
    H1895  C1885     1.08041      .   S
    C3105  C3106     1.39817      .   S
    C1573  C1572     1.40007      .   S
    C2461  C2460     1.39934      .   S
    H260   C259      1.08336      .   S
    H3119  C3109     1.07994      .   S
    H1775  C1765     1.08084      .   S
    C2845  C2844     1.40041      .   S
    H479   C478      1.08329      .   S
    C1880  C1885     1.41152      .   S
    C1880  C1881     1.40283      .   S
    C1861  C1860     1.39998      .   S
    H2831  C2821     1.07921      .   S
    C1761  C1762     1.39785      .   S
    H440   C439      1.08386      .   S
    C2433  C2434     1.39711      .   S
    C1789  C1788     1.39854      .   S
    C2817  C2818     1.39676      .   S
    H1868  C1857     1.08360      .   S
    H497   C496      1.08349      .   S
    H494   C493      1.08339      .   S
    H263   C262      1.08375      .   S
    H281   C280      1.08350      .   S
    H242   C241      1.08343      .   S
    H2447  C2437     1.08054      .   S
    C1400  C1401     1.40409      .   S
    H3140  C3129     1.08315      .   S
    H458   C457      1.08363      .   S
    H224   C223      1.08359      .   S
    C3109  C3108     1.39902      .   S
    H461   C460      1.08353      .   S
    C1885  C1884     1.39839      .   S
    H443   C442      1.08274      .   S
    H1580  C1569     1.08343      .   S
    H1604  C1593     1.08358      .   S
    C1765  C1764     1.39949      .   S
    C3129  C3130     1.39571      .   S
    C1857  C1858     1.39614      .   S
    H227   C226      1.08375      .   S
    C2821  C2820     1.39595      .   S
    H2852  C2841     1.08294      .   S
    C1593  C1594     1.39575      .   S
    H1796  C1785     1.08371      .   S
    C1569  C1570     1.39571      .   S
    H245   C244      1.08287      .   S
    H2468  C2457     1.08380      .   S
    H476   C475      1.08298      .   S
    H278   C277      1.08338      .   S
    C2437  C2436     1.39758      .   S
    H1892  C1881     1.08317      .   S
    C2841  C2842     1.39706      .   S
    C2457  C2458     1.39464      .   S
    C1785  C1786     1.39415      .   S
    C1881  C1882     1.39492      .   S
    C1596  H1606     1.08277      .   S
    C1596  C1595     1.40408      .   S
    C3132  H3142     1.08285      .   S
    C3132  C3131     1.40461      .   S
    C2460  H2470     1.08340      .   S
    C2460  C2459     1.40427      .   S
    C1572  H1582     1.08261      .   S
    C1572  C1571     1.40396      .   S
    C1860  H1870     1.08311      .   S
    C1860  C1859     1.40273      .   S
    C3106  H3117     1.08288      .   S
    C3106  C3107     1.40445      .   S
    C2844  H2854     1.08242      .   S
    C2844  C2843     1.40514      .   S
    C1788  H1798     1.08283      .   S
    C1788  C1787     1.40300      .   S
    C1884  H1894     1.08333      .   S
    C1884  C1883     1.40248      .   S
    C1762  H1773     1.08314      .   S
    C1762  C1763     1.40545      .   S
    C2434  H2445     1.08300      .   S
    C2434  C2435     1.40395      .   S
    C2818  H2829     1.08304      .   S
    C2818  C2819     1.40347      .   S
    C1379  C323      1.48655      .   S
    C1379  C1380     1.40499      .   S
    C1858  C1859     1.40442      .   S
    C1858  H1869     1.08296      .   S
    C3130  C3131     1.40454      .   S
    C3130  H3141     1.08303      .   S
    C3108  C3107     1.40490      .   S
    C3108  H3118     1.08284      .   S
    C1381  H1391     1.08098      .   S
    C1381  C1380     1.40031      .   S
    C1594  C1595     1.40596      .   S
    C1594  H1605     1.08313      .   S
    C2651  C518      1.48419      .   S
    C2651  C2652     1.40368      .   S
    C1570  C1571     1.40461      .   S
    C1570  H1581     1.08269      .   S
    C2627  C302      1.48661      .   S
    C2627  C2628     1.40482      .   S
    C259   C323      1.40407      .   S
    C259   C258      1.40299      .   S
    C1764  C1763     1.40365      .   S
    C1764  H1774     1.08327      .   S
    C2458  C2459     1.40516      .   S
    C2458  H2469     1.08292      .   S
    C2820  C2819     1.40269      .   S
    C2820  H2830     1.08301      .   S
    C2653  H2663     1.08075      .   S
    C2653  C2652     1.39948      .   S
    C1595  C536      1.48721      .   S
    C1786  C1787     1.40433      .   S
    C1786  H1797     1.08278      .   S
    C1882  C1883     1.40418      .   S
    C1882  H1893     1.08321      .   S
    C2842  C2843     1.40439      .   S
    C2842  H2853     1.08307      .   S
    C3131  C512      1.48483      .   S
    C2436  C2435     1.40518      .   S
    C2436  H2446     1.08319      .   S
    C2629  H2639     1.08082      .   S
    C2629  C2628     1.40109      .   S
    C478   C477      1.40781      .   S
    C478   C536      1.40626      .   S
    C1859  C314      1.48383      .   S
    C1571  C320      1.48409      .   S
    C439   C438      1.40539      .   S
    C439   C512      1.40458      .   S
    C496   C518      1.40249      .   S
    C496   C495      1.40104      .   S
    C280   C302      1.40393      .   S
    C280   C279      1.40472      .   S
    C2459  C521      1.48329      .   S
    C241   C240      1.40759      .   S
    C241   C314      1.40580      .   S
    C3107  C296      1.48561      .   S
    C493   C492      1.40734      .   S
    C493   C521      1.40468      .   S
    C262   C261      1.40735      .   S
    C262   C320      1.40576      .   S
    C223   C222      1.40398      .   S
    C223   C296      1.40601      .   S
    C2843  C515      1.48607      .   S
    C1787  C533      1.48040      .   S
    C457   C456      1.40747      .   S
    C457   C530      1.40468      .   S
    C1883  C530      1.48122      .   S
    C460   C459      1.40586      .   S
    C460   C533      1.40344      .   S
    C442   C441      1.40630      .   S
    C442   C515      1.40556      .   S
    C1763  C317      1.48563      .   S
    C226   C225      1.40314      .   S
    C226   C299      1.40226      .   S
    C2819  C299      1.47995      .   S
    C2435  C305      1.48428      .   S
    C244   C243      1.40425      .   S
    C244   C317      1.40446      .   S
    C475   C474      1.40547      .   S
    C475   C539      1.40467      .   S
    C277   C276      1.40426      .   S
    C277   C305      1.40464      .   S
    C1403  C539      1.48089      .   S
    C1403  C1402     1.40382      .   S
    C323   C250      1.40753      .   S
    C258   C321      1.40362      .   S
    C1380  H1390     1.08321      .   S
    C477   C534      1.40655      .   S
    C438   C510      1.40609      .   S
    C1401  C1402     1.39658      .   S
    C1401  H1412     1.08376      .   S
    C302   C229      1.40514      .   S
    C518   C445      1.40713      .   S
    C536   C463      1.40370      .   S
    C495   C516      1.40315      .   S
    C279   C300      1.40673      .   S
    C512   C502      1.40378      .   S
    C240   C312      1.40574      .   S
    C2652  H2662     1.08324      .   S
    C492   C519      1.40917      .   S
    C261   C318      1.40727      .   S
    C222   C294      1.40349      .   S
    C314   C268      1.40276      .   S
    C459   C531      1.40685      .   S
    C2628  H2638     1.08245      .   S
    C456   C528      1.40680      .   S
    C320   C247      1.40336      .   S
    C521   C448      1.40148      .   S
    C441   C513      1.40537      .   S
    C225   C297      1.40505      .   S
    C296   C286      1.40657      .   S
    C474   C537      1.40659      .   S
    C530   C484      1.40147      .   S
    C533   C481      1.40136      .   S
    C243   C315      1.40198      .   S
    C515   C499      1.40610      .   S
    C276   C303      1.40501      .   S
    C299   C283      1.40437      .   S
    C317   C265      1.40689      .   S
    C305   C232      1.40522      .   S
    C539   C466      1.40244      .   S
    C1402  H1413     1.08361      .   S
    C250   H251      1.08342      .   S
    C250   C249      1.40758      .   S
    C321   H322      1.08276      .   S
    C321   C249      1.40661      .   S
    C229   H230      1.08342      .   S
    C229   C228      1.40722      .   S
    C510   H511      1.08313      .   S
    C510   C501      1.40424      .   S
    C534   H535      1.08338      .   S
    C534   C462      1.40335      .   S
    C445   H446      1.08347      .   S
    C445   C444      1.40793      .   S
    C300   H301      1.08304      .   S
    C300   C228      1.40845      .   S
    C312   H313      1.08310      .   S
    C312   C267      1.40388      .   S
    C516   H517      1.08346      .   S
    C516   C444      1.40646      .   S
    C502   H503      1.08309      .   S
    C502   C501      1.40364      .   S
    C294   H295      1.08280      .   S
    C294   C285      1.40552      .   S
    C463   H464      1.08373      .   S
    C463   C462      1.40379      .   S
    C268   H269      1.08318      .   S
    C268   C267      1.40306      .   S
    C531   H532      1.08341      .   S
    C531   C480      1.40348      .   S
    C318   H319      1.08316      .   S
    C318   C246      1.40627      .   S
    C519   H520      1.08263      .   S
    C519   C447      1.40670      .   S
    C297   H298      1.08280      .   S
    C297   C282      1.40665      .   S
    C286   H287      1.08323      .   S
    C286   C285      1.40633      .   S
    C528   H529      1.08303      .   S
    C528   C483      1.40381      .   S
    C247   H248      1.08325      .   S
    C247   C246      1.40251      .   S
    C513   H514      1.08258      .   S
    C513   C498      1.40511      .   S
    C448   H449      1.08358      .   S
    C448   C447      1.40158      .   S
    C315   H316      1.08338      .   S
    C315   C264      1.40535      .   S
    C537   H538      1.08346      .   S
    C537   C465      1.40476      .   S
    C481   H482      1.08344      .   S
    C481   C480      1.40198      .   S
    C303   H304      1.08374      .   S
    C303   C231      1.40533      .   S
    C484   H485      1.08371      .   S
    C484   C483      1.40087      .   S
    C499   H500      1.08308      .   S
    C499   C498      1.40525      .   S
    C265   H266      1.08307      .   S
    C265   C264      1.40782      .   S
    C283   H284      1.08334      .   S
    C283   C282      1.40475      .   S
    C232   H233      1.08342      .   S
    C232   C231      1.40548      .   S
    C466   H467      1.08385      .   S
    C466   C465      1.40338      .   S
    C375   C376      1.40516      .   S
    C375   C420      1.40712      .   S
    C390   C391      1.40371      .   S
    C390   C405      1.40496      .   S
    C570   C571      1.40569      .   S
    C570   C642      1.40777      .   S
    C336   C408      1.40801      .   S
    C336   C337      1.40834      .   S
    H392   C391      1.08348      .   S
    C591   C592      1.40281      .   S
    C591   C636      1.40498      .   S
    H572   C571      1.08344      .   S
    C354   C426      1.40809      .   S
    C354   C355      1.40947      .   S
    C609   C610      1.40229      .   S
    C609   C618      1.40402      .   S
    H377   C376      1.08355      .   S
    C555   C556      1.40248      .   S
    C555   C627      1.40425      .   S
    C393   C394      1.40500      .   S
    C393   C402      1.40625      .   S
    C357   C358      1.40477      .   S
    C357   C429      1.40494      .   S
    C339   C340      1.40622      .   S
    C339   C411      1.40600      .   S
    C552   C553      1.40685      .   S
    C552   C624      1.40528      .   S
    C372   C373      1.40610      .   S
    C372   C423      1.40599      .   S
    H557   C556      1.08334      .   S
    C588   C589      1.40580      .   S
    C588   C639      1.40676      .   S
    C573   C574      1.40689      .   S
    C573   C645      1.40379      .   S
    H593   C592      1.08341      .   S
    C606   C607      1.40509      .   S
    C606   C621      1.40509      .   S
    H409   C408      1.08242      .   S
    H359   C358      1.08287      .   S
    H421   C420      1.08322      .   S
    H611   C610      1.08348      .   S
    H575   C574      1.08265      .   S
    H395   C394      1.08385      .   S
    H338   C337      1.08315      .   S
    H590   C589      1.08331      .   S
    H341   C340      1.08348      .   S
    H374   C373      1.08298      .   S
    H427   C426      1.08272      .   S
    H637   C636      1.08333      .   S
    H554   C553      1.08314      .   S
    H356   C355      1.08370      .   S
    H406   C405      1.08361      .   S
    H643   C642      1.08367      .   S
    H619   C618      1.08350      .   S
    H625   C624      1.08275      .   S
    H412   C411      1.08335      .   S
    H403   C402      1.08325      .   S
    H622   C621      1.08299      .   S
    H424   C423      1.08262      .   S
    H608   C607      1.08363      .   S
    H430   C429      1.08327      .   S
    H2925  C2914     1.08286      .   S
    H628   C627      1.08321      .   S
    H640   C639      1.08311      .   S
    H646   C645      1.08309      .   S
    C391   C407      1.40299      .   S
    C376   C422      1.40403      .   S
    C571   C644      1.40385      .   S
    C420   C348      1.40594      .   S
    H2734  C2724     1.08347      .   S
    C408   C387      1.40452      .   S
    H2758  C2748     1.08292      .   S
    C337   C410      1.40516      .   S
    C556   C629      1.40233      .   S
    C592   C638      1.40307      .   S
    C358   C431      1.40511      .   S
    C394   C404      1.40235      .   S
    C642   C585      1.40552      .   S
    C610   C620      1.40334      .   S
    C405   C333      1.40522      .   S
    C340   C413      1.40467      .   S
    C373   C425      1.40561      .   S
    C426   C369      1.40426      .   S
    C589   C641      1.40342      .   S
    C574   C647      1.40733      .   S
    C636   C564      1.40695      .   S
    C355   C428      1.40695      .   S
    C553   C626      1.40507      .   S
    C411   C384      1.40373      .   S
    C402   C330      1.40675      .   S
    C618   C546      1.40572      .   S
    C624   C603      1.40331      .   S
    H1486  C1476     1.08303      .   S
    C423   C351      1.40336      .   S
    C429   C366      1.40531      .   S
    H2950  C2940     1.08309      .   S
    C627   C600      1.40796      .   S
    C639   C567      1.40780      .   S
    C607   C623      1.40300      .   S
    C621   C549      1.40297      .   S
    C645   C582      1.40246      .   S
    H2924  C2913     1.08318      .   S
    C2914  C2913     1.39751      .   S
    C2914  C2915     1.40470      .   S
    C422   C349      1.40385      .   S
    C422   C1955     1.48221      .   S
    C644   C1499     1.47985      .   S
    C644   C586      1.40081      .   S
    H2759  C2749     1.08115      .   S
    C407   C2915     1.48305      .   S
    C407   C334      1.40533      .   S
    C2724  C2725     1.40019      .   S
    C2724  C2723     1.40380      .   S
    C348   C349      1.40457      .   S
    C2748  C2749     1.39902      .   S
    C2748  C2747     1.40431      .   S
    H2735  C2725     1.08090      .   S
    C404   C331      1.40226      .   S
    C404   C3011     1.47677      .   S
    C387   C388      1.40238      .   S
    C410   C388      1.40335      .   S
    C410   C2723     1.48426      .   S
    C431   C1283     1.48383      .   S
    C431   C367      1.40525      .   S
    C413   C385      1.40160      .   S
    C413   C2531     1.48083      .   S
    C585   C586      1.40222      .   S
    C629   C2555     1.48297      .   S
    C629   C601      1.40495      .   S
    C425   C352      1.40280      .   S
    C425   C1667     1.48070      .   S
    C641   C568      1.40250      .   S
    C641   C1691     1.48178      .   S
    C647   C1307     1.48653      .   S
    C647   C583      1.40451      .   S
    C638   C565      1.40394      .   S
    C638   C1979     1.48317      .   S
    C1476  C1477     1.40060      .   S
    C1476  C1475     1.40333      .   S
    C333   C334      1.40646      .   S
    C330   C331      1.40393      .   S
    C2940  C2941     1.39776      .   S
    C2940  C2939     1.40295      .   S
    C620   C547      1.40414      .   S
    C620   C3035     1.48194      .   S
    C626   C604      1.40320      .   S
    C626   C2747     1.48314      .   S
    C384   C385      1.40242      .   S
    C369   C370      1.40152      .   S
    C564   C565      1.40707      .   S
    C351   C352      1.40282      .   S
    C428   C370      1.40292      .   S
    C428   C1475     1.48446      .   S
    H2951  C2941     1.08060      .   S
    C366   C367      1.40458      .   S
    C603   C604      1.40309      .   S
    C567   C568      1.40326      .   S
    H1487  C1477     1.08058      .   S
    C546   C547      1.40621      .   S
    C600   C601      1.40711      .   S
    C582   C583      1.40354      .   S
    C623   C550      1.40156      .   S
    C623   C2939     1.47898      .   S
    C549   C550      1.40163      .   S
    C2913  C2912     1.40423      .   S
    H3021  C3010     1.08299      .   S
    H2565  C2554     1.08330      .   S
    C349   H350      1.08319      .   S
    H3045  C3034     1.08303      .   S
    H1294  C1284     1.08309      .   S
    H1989  C1978     1.08345      .   S
    C1499  C1500     1.40271      .   S
    C1499  C1498     1.40381      .   S
    H1966  C1956     1.08302      .   S
    H1510  C1500     1.08336      .   S
    C586   H587      1.08336      .   S
    C1955  C1956     1.40400      .   S
    C1955  C1954     1.40402      .   S
    H1318  C1308     1.08331      .   S
    C2915  C2916     1.40415      .   S
    C388   H389      1.08337      .   S
    C331   H332      1.08396      .   S
    C3011  C3010     1.40361      .   S
    C3011  C3012     1.40367      .   S
    C2749  C2744     1.40992      .   S
    C334   H335      1.08283      .   S
    C385   H386      1.08362      .   S
    C2725  C2720     1.40973      .   S
    C1283  C1284     1.40529      .   S
    C1283  C1282     1.40460      .   S
    C2555  C2554     1.40505      .   S
    C2555  C2556     1.40331      .   S
    C352   H353      1.08342      .   S
    C367   H368      1.08329      .   S
    H1702  C1692     1.08284      .   S
    C568   H569      1.08294      .   S
    C1307  C1308     1.40436      .   S
    C1307  C1306     1.40496      .   S
    C565   H566      1.08340      .   S
    C2531  C2532     1.40244      .   S
    C2531  C2530     1.40373      .   S
    C604   H605      1.08323      .   S
    C1667  C1668     1.40264      .   S
    C1667  C1666     1.40423      .   S
    C1691  C1692     1.40390      .   S
    C1691  C1690     1.40335      .   S
    C583   H584      1.08357      .   S
    C601   H602      1.08366      .   S
    C370   H371      1.08270      .   S
    H1509  C1498     1.08321      .   S
    C1979  C1978     1.40427      .   S
    C1979  C1980     1.40448      .   S
    C547   H548      1.08301      .   S
    H1678  C1668     1.08349      .   S
    C2723  C2722     1.40510      .   S
    C2554  C2553     1.39528      .   S
    H2542  C2532     1.08352      .   S
    C3010  C3009     1.39841      .   S
    H1965  C1954     1.08255      .   S
    C3035  C3034     1.40473      .   S
    C3035  C3036     1.40396      .   S
    C2941  C2936     1.40967      .   S
    C550   H551      1.08367      .   S
    C1477  C1472     1.41161      .   S
    C2747  C2746     1.40435      .   S
    C1500  C1501     1.39617      .   S
    C1956  C1957     1.39713      .   S
    C1284  C1285     1.39744      .   S
    C1475  C1474     1.40504      .   S
    H2541  C2530     1.08278      .   S
    C1978  C1977     1.39485      .   S
    C1308  C1309     1.39915      .   S
    H1677  C1666     1.08275      .   S
    C3034  C3033     1.39410      .   S
    C2939  C2938     1.40493      .   S
    C1498  C1497     1.39670      .   S
    H1701  C1690     1.08327      .   S
    C1692  C1693     1.39631      .   S
    H3022  C3012     1.08362      .   S
    C1954  C1953     1.39756      .   S
    H1293  C1282     1.08280      .   S
    H1317  C1306     1.08286      .   S
    C1668  C1669     1.39672      .   S
    C2532  C2533     1.39684      .   S
    H2566  C2556     1.08311      .   S
    C3012  C3013     1.39754      .   S
    C2530  C2529     1.39779      .   S
    C1666  C1665     1.39787      .   S
    C1282  C1281     1.39769      .   S
    C2556  C2557     1.39913      .   S
    C1690  C1689     1.39791      .   S
    H1990  C1980     1.08337      .   S
    C1306  C1305     1.39815      .   S
    H2754  C2742     1.08134      .   S
    H3046  C3036     1.08334      .   S
    C1980  C1981     1.39912      .   S
    H2730  C2718     1.08092      .   S
    C3036  C3037     1.39896      .   S
    C2553  H2564     1.08320      .   S
    C2553  C2552     1.40244      .   S
    H2946  C2934     1.08197      .   S
    C3009  H3020     1.08279      .   S
    C3009  C3008     1.40246      .   S
    H1482  C1470     1.08132      .   S
    H2923  C2911     1.08147      .   S
    C1285  H1295     1.08138      .   S
    C1285  C1280     1.40839      .   S
    C1977  H1988     1.08361      .   S
    C1977  C1976     1.40258      .   S
    C3033  H3044     1.08397      .   S
    C3033  C3032     1.40312      .   S
    C1957  H1967     1.07994      .   S
    C1957  C1952     1.40992      .   S
    C1501  H1511     1.08024      .   S
    C1501  C1496     1.41013      .   S
    H2751  C2737     1.08363      .   S
    C1309  H1319     1.08074      .   S
    C1309  C1304     1.40929      .   S
    C1497  C1496     1.40402      .   S
    C1497  H1508     1.08309      .   S
    C1953  C1952     1.40434      .   S
    C1953  H1964     1.08347      .   S
    C1693  H1703     1.08042      .   S
    C1693  C1688     1.40920      .   S
    H1479  C1465     1.08362      .   S
    C2557  C2552     1.40966      .   S
    C2557  H2567     1.08123      .   S
    C3013  C3008     1.40567      .   S
    C3013  H3023     1.08262      .   S
    C2912  C2911     1.48595      .   S
    C2912  C2917     1.40926      .   S
    H2727  C2713     1.08377      .   S
    C1669  H1679     1.08032      .   S
    C1669  C1664     1.40999      .   S
    C2533  H2543     1.07970      .   S
    C2533  C2528     1.41033      .   S
    H2943  C2929     1.08309      .   S
    C1281  C1280     1.40344      .   S
    C1281  H1292     1.08348      .   S
    C2552  C2551     1.48348      .   S
    H1287  C1273     1.08358      .   S
    C1689  C1688     1.40423      .   S
    C1689  H1700     1.08331      .   S
    C1665  H1676     1.08334      .   S
    C1665  C1664     1.40414      .   S
    C1305  C1304     1.40351      .   S
    C1305  H1316     1.08380      .   S
    C2529  H2540     1.08321      .   S
    C2529  C2528     1.40405      .   S
    H1290  C1278     1.08183      .   S
    C3008  C3007     1.47689      .   S
    C1981  C1976     1.40984      .   S
    C1981  H1991     1.08036      .   S
    C3037  C3032     1.40899      .   S
    C3037  H3047     1.08081      .   S
    C1952  C1951     1.48570      .   S
    C1496  C1495     1.48440      .   S
    C1280  C1279     1.48421      .   S
    H3019  C3007     1.08534      .   S
    C1976  C1975     1.48346      .   S
    H1314  C1302     1.08167      .   S
    C1304  C1303     1.48702      .   S
    C3032  C3031     1.48191      .   S
    C2916  C2917     1.39798      .   S
    C2916  H2926     1.08300      .   S
    H1311  C1297     1.08312      .   S
    H3016  C3003     1.08286      .   S
    C1688  C1687     1.48439      .   S
    H2563  C2551     1.08194      .   S
    H1962  C1950     1.08074      .   S
    C2744  C2743     1.48383      .   S
    C2744  C2745     1.40278      .   S
    C1664  C1663     1.48674      .   S
    C2720  C2721     1.40272      .   S
    C2720  C2719     1.48465      .   S
    C2528  C2527     1.48662      .   S
    H1506  C1494     1.08043      .   S
    H1698  C1686     1.08128      .   S
    H2560  C2547     1.08102      .   S
    C2722  H2733     1.08343      .   S
    C2722  C2721     1.39524      .   S
    C2911  C2910     1.34283      .   S
    C2742  C2743     1.34136      .   S
    C2742  C2738     1.48376      .   S
    H1959  C1945     1.08361      .   S
    C2936  C2935     1.47949      .   S
    C2936  C2937     1.40169      .   S
    C2746  C2745     1.39461      .   S
    C2746  H2757     1.08347      .   S
    H1695  C1681     1.08377      .   S
    C1472  C1473     1.40336      .   S
    C1472  C1471     1.48809      .   S
    H1503  C1489     1.08391      .   S
    C2551  C2550     1.34087      .   S
    C1474  H1485     1.08340      .   S
    C1474  C1473     1.39620      .   S
    H1987  C1975     1.08240      .   S
    C2718  C2719     1.34138      .   S
    C2718  C2714     1.48444      .   S
    H1984  C1971     1.08109      .   S
    C2938  H2949     1.08237      .   S
    C2938  C2937     1.39429      .   S
    H1674  C1662     1.08045      .   S
    H3043  C3031     1.08256      .   S
    H2920  C2907     1.08104      .   S
    C3007  C3006     1.34019      .   S
    H3040  C3027     1.08193      .   S
    H2538  C2526     1.08067      .   S
    C2934  C2935     1.33923      .   S
    C2934  C2930     1.48027      .   S
    C2737  C2738     1.40203      .   S
    C2737  C2736     1.39685      .   S
    H397   C396      1.08312      .   S
    C1470  C1471     1.34191      .   S
    C1470  C1466     1.48611      .   S
    H415   C414      1.08321      .   S
    H400   C399      1.08277      .   S
    C1278  C1279     1.34224      .   S
    C1278  C1274     1.48334      .   S
    H418   C417      1.08308      .   S
    C1975  C1974     1.34166      .   S
    C2917  H2927     1.08046      .   S
    H1671  C1657     1.08370      .   S
    C3031  C3030     1.34143      .   S
    H631   C630      1.08345      .   S
    H613   C612      1.08294      .   S
    H2535  C2521     1.08388      .   S
    C1279  H1291     1.08233      .   S
    C1951  C1950     1.34299      .   S
    C1951  H1963     1.08152      .   S
    C2713  C2714     1.40088      .   S
    C2713  C2712     1.39586      .   S
    C1302  C1303     1.34205      .   S
    C1302  C1298     1.48595      .   S
    H616   C615      1.08328      .   S
    C1495  C1494     1.34065      .   S
    C1495  H1507     1.08109      .   S
    C1950  C1946     1.48480      .   S
    C1465  C1466     1.40096      .   S
    C1465  C1464     1.39371      .   S
    C2929  C2930     1.40065      .   S
    C2929  C2928     1.39514      .   S
    H634   C633      1.08324      .   S
    H2750  C2736     1.08083      .   S
    C1494  C1490     1.48220      .   S
    C1273  C1274     1.40302      .   S
    C1273  C1272     1.39760      .   S
    C1303  H1315     1.08159      .   S
    C1686  C1687     1.34215      .   S
    C1686  C1682     1.48280      .   S
    C1687  H1699     1.08146      .   S
    C2743  H2755     1.08198      .   S
    H1478  C1464     1.08059      .   S
    C1663  C1662     1.34151      .   S
    C1663  H1675     1.08128      .   S
    C2745  H2756     1.08391      .   S
    C2721  H2732     1.08332      .   S
    C2527  C2526     1.34101      .   S
    C2527  H2539     1.08109      .   S
    C2719  H2731     1.08255      .   S
    H2726  C2712     1.08044      .   S
    C1662  C1658     1.48394      .   S
    C1297  C1298     1.40191      .   S
    C1297  C1296     1.39588      .   S
    H2942  C2928     1.08061      .   S
    C2526  C2522     1.48374      .   S
    H1286  C1272     1.08068      .   S
    C2738  C2739     1.40740      .   S
    C2935  H2947     1.08251      .   S
    C1473  H1484     1.08339      .   S
    H3017  C3004     1.08230      .   S
    C2937  H2948     1.08321      .   S
    C1945  C1946     1.40270      .   S
    C1945  C1944     1.39651      .   S
    C1471  H1483     1.08136      .   S
    C1489  C1490     1.40111      .   S
    C1489  C1488     1.39364      .   S
    C1681  C1682     1.40171      .   S
    C1681  C1680     1.39505      .   S
    C2714  C2715     1.40709      .   S
    C2547  C2548     1.40027      .   S
    C2547  C2546     1.40735      .   S
    C2736  C2741     1.40741      .   S
    C3003  C3004     1.39702      .   S
    C3003  C3002     1.40530      .   S
    C2550  H2562     1.08194      .   S
    C2550  C2546     1.48276      .   S
    C2930  C2931     1.40745      .   S
    H1310  C1296     1.08112      .   S
    H2561  C2548     1.08049      .   S
    C1274  C1275     1.40677      .   S
    C1466  C1467     1.41069      .   S
    C1971  C1972     1.39798      .   S
    C1971  C1970     1.40843      .   S
    C1657  C1658     1.40090      .   S
    C1657  C1656     1.39303      .   S
    H2921  C2908     1.08144      .   S
    C2712  C2717     1.41137      .   S
    C3027  C3028     1.39595      .   S
    C3027  C3026     1.40665      .   S
    C1974  H1986     1.08159      .   S
    C1974  C1970     1.48317      .   S
    C1464  C1469     1.40737      .   S
    C2928  C2933     1.40699      .   S
    C2907  C2908     1.40029      .   S
    C2907  C2906     1.40803      .   S
    C2521  C2522     1.40064      .   S
    C2521  C2520     1.39206      .   S
    H1985  C1972     1.08116      .   S
    H3041  C3028     1.08074      .   S
    H1958  C1944     1.08158      .   S
    C1298  C1299     1.40911      .   S
    C1946  C1947     1.40863      .   S
    H1694  C1680     1.07995      .   S
    C1272  C1277     1.40692      .   S
    H1502  C1488     1.08062      .   S
    C3030  H3042     1.08177      .   S
    C3030  C3026     1.48322      .   S
    C414   C363      1.40327      .   S
    C414   C342      1.40640      .   S
    C396   C324      1.40442      .   S
    C396   C378      1.40540      .   S
    C1490  C1491     1.40892      .   S
    C3006  H3018     1.08575      .   S
    C3006  C3002     1.47716      .   S
    C399   C327      1.40368      .   S
    C399   C381      1.40582      .   S
    C417   C360      1.40427      .   S
    C417   C345      1.40593      .   S
    C1682  C1683     1.40832      .   S
    C630   C579      1.40342      .   S
    C630   C558      1.40564      .   S
    C612   C540      1.40710      .   S
    C612   C594      1.40404      .   S
    C2910  C2906     1.48447      .   S
    C2910  H2922     1.08070      .   S
    C633   C561      1.40240      .   S
    C633   C576      1.40640      .   S
    C1296  C1301     1.40591      .   S
    C615   C597      1.40346      .   S
    C615   C543      1.40441      .   S
    C1658  C1659     1.40966      .   S
    H1670  C1656     1.08085      .   S
    C2522  C2523     1.40985      .   S
    C3004  C3005     1.40414      .   S
    C1944  C1949     1.40562      .   S
    H2534  C2520     1.08096      .   S
    C1488  C1493     1.40642      .   S
    C2548  C2549     1.41048      .   S
    C2546  C2545     1.39971      .   S
    C1680  C1685     1.40689      .   S
    C1972  C1973     1.40563      .   S
    C2908  C2909     1.40669      .   S
    C3028  C3029     1.40674      .   S
    C1970  C1969     1.40239      .   S
    C1656  C1661     1.40547      .   S
    C363   C364      1.40319      .   S
    C3026  C3025     1.40165      .   S
    C2520  C2525     1.40612      .   S
    C3002  C3001     1.40217      .   S
    C342   C343      1.40770      .   S
    C324   C325      1.40562      .   S
    C378   C379      1.40548      .   S
    C2906  C2905     1.40204      .   S
    C327   C328      1.40377      .   S
    C381   C382      1.40584      .   S
    C360   C361      1.40274      .   S
    C345   C346      1.40731      .   S
    C579   C580      1.40132      .   S
    C540   C541      1.40687      .   S
    C594   C595      1.40240      .   S
    C558   C559      1.40668      .   S
    C561   C562      1.40058      .   S
    C2739  H2752     1.08126      .   S
    C2739  C2740     1.39831      .   S
    C576   C577      1.40930      .   S
    C597   C598      1.40438      .   S
    C543   C544      1.40636      .   S
    C2715  H2728     1.08132      .   S
    C2715  C2716     1.39850      .   S
    C2741  C2740     1.40648      .   S
    C2931  H2944     1.08110      .   S
    C2931  C2932     1.39604      .   S
    C1947  H1960     1.08052      .   S
    C1947  C1948     1.39866      .   S
    C1275  H1288     1.08145      .   S
    C1275  C1276     1.39742      .   S
    C1491  H1504     1.08083      .   S
    C1491  C1492     1.39946      .   S
    C2933  C2932     1.40599      .   S
    C2717  C2716     1.40995      .   S
    C1299  H1312     1.08136      .   S
    C1299  C1300     1.40112      .   S
    C1467  H1480     1.08093      .   S
    C1467  C1468     1.40335      .   S
    C1683  H1696     1.08081      .   S
    C1683  C1684     1.39937      .   S
    C1277  C1276     1.40650      .   S
    C1659  H1672     1.08087      .   S
    C1659  C1660     1.40147      .   S
    C1469  C1468     1.40564      .   S
    C2523  H2536     1.08051      .   S
    C2523  C2524     1.40229      .   S
    C1949  C1948     1.40521      .   S
    C1493  C1492     1.40585      .   S
    C1301  C1300     1.40579      .   S
    C1685  C1684     1.40641      .   S
    C2740  H2753     1.08105      .   S
    C1661  C1660     1.40571      .   S
    C2545  H2559     1.08361      .   S
    C2545  C2544     1.39430      .   S
    C2549  C2544     1.41091      .   S
    C2525  C2524     1.40596      .   S
    C2716  H2729     1.08128      .   S
    C2932  H2945     1.08064      .   S
    C1973  C1968     1.40631      .   S
    C3005  C3000     1.40322      .   S
    C1948  H1961     1.08184      .   S
    C1969  H1983     1.08324      .   S
    C1969  C1968     1.39714      .   S
    C3029  C3024     1.40676      .   S
    C1276  H1289     1.08161      .   S
    C1492  H1505     1.08138      .   S
    C364   H365      1.08291      .   S
    C364   C416      1.40386      .   S
    C2909  C2904     1.40658      .   S
    C3025  H3039     1.08375      .   S
    C3025  C3024     1.39784      .   S
    C343   H344      1.08346      .   S
    C343   C416      1.40632      .   S
    C1300  H1313     1.08192      .   S
    C1684  H1697     1.08143      .   S
    C1468  H1481     1.08135      .   S
    C1660  H1673     1.08191      .   S
    C325   H326      1.08287      .   S
    C325   C398      1.40511      .   S
    C379   H380      1.08319      .   S
    C379   C398      1.40468      .   S
    C580   H581      1.08370      .   S
    C580   C632      1.40265      .   S
    C382   H383      1.08356      .   S
    C382   C401      1.40464      .   S
    C2524  H2537     1.08176      .   S
    C328   H329      1.08360      .   S
    C328   C401      1.40260      .   S
    C595   H596      1.08363      .   S
    C595   C614      1.40157      .   S
    C541   H542      1.08353      .   S
    C541   C614      1.40461      .   S
    C562   H563      1.08352      .   S
    C562   C635      1.40187      .   S
    C559   H560      1.08357      .   S
    C559   C632      1.40456      .   S
    C361   H362      1.08335      .   S
    C361   C419      1.40197      .   S
    C2905  C2904     1.39532      .   S
    C2905  H2919     1.08428      .   S
    C346   H347      1.08303      .   S
    C346   C419      1.40503      .   S
    C577   H578      1.08345      .   S
    C577   C635      1.40659      .   S
    C3001  C3000     1.39952      .   S
    C3001  H3015     1.08251      .   S
    C598   H599      1.08322      .   S
    C598   C617      1.40479      .   S
    C544   H545      1.08356      .   S
    C544   C617      1.40700      .   S
    C2544  H2558     1.08006      .   S
    C1968  H1982     1.08083      .   S
    C3024  H3038     1.08042      .   S
    C416   C995      1.48495      .   S
    C2904  H2918     1.08115      .   S
    C632   C1019     1.48147      .   S
    C614   C2267     1.48168      .   S
    C398   C2243     1.48438      .   S
    C401   C2339     1.48301      .   S
    C635   C923      1.48141      .   S
    C419   C899      1.48247      .   S
    C3000  H3014     1.08244      .   S
    C617   C2363     1.48575      .   S
    H1005  C994      1.08260      .   S
    H933   C922      1.08326      .   S
    H2277  C2266     1.08334      .   S
    H1029  C1018     1.08329      .   S
    H2350  C2340     1.08291      .   S
    H910   C900      1.08285      .   S
    H2254  C2244     1.08382      .   S
    H2374  C2364     1.08293      .   S
    C995   C994      1.40539      .   S
    C995   C996      1.40477      .   S
    C994   C993      1.39580      .   S
    C2267  C2266     1.40404      .   S
    C2267  C2268     1.40376      .   S
    C922   C923      1.40576      .   S
    C922   C921      1.39483      .   S
    C1019  C1018     1.40434      .   S
    C1019  C1020     1.40309      .   S
    C923   C924      1.40252      .   S
    C2266  C2265     1.39488      .   S
    C1018  C1017     1.39503      .   S
    C2243  C2244     1.40463      .   S
    C2243  C2242     1.40414      .   S
    C2339  C2340     1.40387      .   S
    C2339  C2338     1.40463      .   S
    C899   C900      1.40275      .   S
    C899   C898      1.40438      .   S
    C2340  C2341     1.39744      .   S
    C2363  C2364     1.40408      .   S
    C2363  C2362     1.40495      .   S
    C2244  C2245     1.39787      .   S
    C900   C901      1.39764      .   S
    C2364  C2365     1.39835      .   S
    C996   H1006     1.08279      .   S
    C996   C997      1.39995      .   S
    H2253  C2242     1.08326      .   S
    C993   H1004     1.08330      .   S
    C993   C992      1.40240      .   S
    H2349  C2338     1.08261      .   S
    H932   C921      1.08369      .   S
    H909   C898      1.08306      .   S
    C2242  C2241     1.39844      .   S
    C2268  H2278     1.08279      .   S
    C2268  C2269     1.39913      .   S
    C1020  H1030     1.08326      .   S
    C1020  C1021     1.39807      .   S
    C921   C920      1.40283      .   S
    C2338  C2337     1.39735      .   S
    H2276  C2265     1.08387      .   S
    C2265  C2264     1.40318      .   S
    H1028  C1017     1.08338      .   S
    C1017  C1016     1.40248      .   S
    C898   C897      1.39739      .   S
    C924   H934      1.08329      .   S
    C924   C925      1.39959      .   S
    H2373  C2362     1.08317      .   S
    C2362  C2361     1.39837      .   S
    C2341  H2351     1.08018      .   S
    C2341  C2336     1.40943      .   S
    C901   H911      1.08030      .   S
    C901   C896      1.41035      .   S
    C2245  H2255     1.08025      .   S
    C2245  C2240     1.40923      .   S
    C2365  H2375     1.08070      .   S
    C2365  C2360     1.40934      .   S
    C997   C992      1.40982      .   S
    C997   H1007     1.08092      .   S
    C992   C991      1.48535      .   S
    C2269  C2264     1.41032      .   S
    C2269  H2279     1.08036      .   S
    C1021  C1016     1.41029      .   S
    C1021  H1031     1.08085      .   S
    C2337  C2336     1.40378      .   S
    C2337  H2348     1.08331      .   S
    C2241  C2240     1.40420      .   S
    C2241  H2252     1.08309      .   S
    C2264  C2263     1.48471      .   S
    C1016  C1015     1.48336      .   S
    C920   C925      1.41088      .   S
    C920   C919      1.48512      .   S
    C897   C896      1.40383      .   S
    C897   H908      1.08357      .   S
    C925   H935      1.08106      .   S
    C2336  C2335     1.48508      .   S
    C2361  C2360     1.40390      .   S
    C2361  H2372     1.08355      .   S
    C896   C895      1.48612      .   S
    C2240  C2239     1.48563      .   S
    C2360  C2359     1.48679      .   S
    C991   H1003     1.08122      .   S
    C991   C990      1.34077      .   S
    H2346  C2334     1.08085      .   S
    H906   C894      1.08105      .   S
    C2263  H2275     1.08244      .   S
    C2263  C2262     1.34131      .   S
    C1015  H1027     1.08202      .   S
    C1015  C1014     1.34047      .   S
    H931   C919      1.08234      .   S
    C919   C918      1.33980      .   S
    H2250  C2238     1.08155      .   S
    C2335  C2334     1.34129      .   S
    C2335  H2347     1.08237      .   S
    C895   C894      1.34206      .   S
    C895   H907      1.08156      .   S
    H2370  C2358     1.08168      .   S
    C2239  C2238     1.34280      .   S
    C2239  H2251     1.08179      .   S
    C2359  C2358     1.34235      .   S
    C2359  H2371     1.08162      .   S
    C2334  C2330     1.48382      .   S
    C894   C890      1.48387      .   S
    C2238  C2234     1.48560      .   S
    C2358  C2354     1.48574      .   S
    H1002  C990      1.08156      .   S
    C990   C986      1.48445      .   S
    H1026  C1014     1.08144      .   S
    H2274  C2262     1.08045      .   S
    H930   C918      1.08146      .   S
    C1014  C1010     1.48277      .   S
    C2262  C2258     1.48342      .   S
    C918   C914      1.48381      .   S
    C2330  C2329     1.40100      .   S
    C2330  C2331     1.40827      .   S
    H2126  C2112     1.08082      .   S
    H903   C889      1.08359      .   S
    H1238  C1224     1.08096      .   S
    C890   C889      1.40080      .   S
    C890   C891      1.40960      .   S
    C2117  C2112     1.40733      .   S
    C2117  C2116     1.40629      .   S
    H2343  C2329     1.08353      .   S
    C2234  C2235     1.40755      .   S
    C2234  C2233     1.40226      .   S
    C1229  C1224     1.40666      .   S
    C1229  C1228     1.40689      .   S
    C1061  C1056     1.40648      .   S
    C1061  C1060     1.40628      .   S
    H2344  C2331     1.08114      .   S
    C2354  C2353     1.40185      .   S
    C2354  C2355     1.40873      .   S
    H2102  C2088     1.08101      .   S
    H2248  C2235     1.08125      .   S
    C2093  C2088     1.40688      .   S
    C2093  C2092     1.40677      .   S
    H1070  C1056     1.08097      .   S
    C986   C987      1.40720      .   S
    C986   C985      1.40019      .   S
    C1157  C1156     1.40663      .   S
    C1157  C1152     1.40676      .   S
    C2021  C2016     1.41081      .   S
    C2021  C2020     1.41073      .   S
    H2247  C2233     1.08324      .   S
    C1133  C1128     1.40692      .   S
    C1133  C1132     1.40665      .   S
    H904   C891      1.08091      .   S
    H2367  C2353     1.08263      .   S
    H928   C915      1.08092      .   S
    H1073  C1060     1.08152      .   S
    H2272  C2259     1.08162      .   S
    H2030  C2016     1.08013      .   S
    H2368  C2355     1.08068      .   S
    H1142  C1128     1.08113      .   S
    H1000  C987      1.08178      .   S
    C1010  C1011     1.40892      .   S
    C1010  C1009     1.40068      .   S
    H1024  C1011     1.08085      .   S
    C2258  C2259     1.40826      .   S
    C2258  C2257     1.40162      .   S
    C914   C915      1.40902      .   S
    C914   C913      1.39821      .   S
    C2189  C2184     1.40579      .   S
    C2189  C2188     1.40645      .   S
    H1169  C1156     1.08148      .   S
    H2129  C2116     1.08099      .   S
    H1166  C1152     1.08119      .   S
    H999   C985      1.08325      .   S
    C889   C888      1.39379      .   S
    C2112  C2113     1.39558      .   S
    C2329  C2328     1.39482      .   S
    C1224  C1225     1.39729      .   S
    H1241  C1228     1.08140      .   S
    C2331  C2332     1.39953      .   S
    H2105  C2092     1.08142      .   S
    H1145  C1132     1.08063      .   S
    H2198  C2184     1.08058      .   S
    H2033  C2020     1.08070      .   S
    H2201  C2188     1.08086      .   S
    C891   C892      1.40134      .   S
    C2235  C2236     1.39832      .   S
    C2088  C2089     1.39820      .   S
    C1056  C1057     1.39706      .   S
    C2233  C2232     1.39774      .   S
    H1023  C1009     1.08391      .   S
    C1060  C1059     1.40001      .   S
    C2353  C2352     1.39548      .   S
    C2116  C2115     1.40032      .   S
    C2355  C2356     1.40190      .   S
    C987   C988      1.40040      .   S
    H2271  C2257     1.08354      .   S
    C2016  C2017     1.39951      .   S
    C1128  C1129     1.39777      .   S
    C1228  C1227     1.40225      .   S
    C2259  C2260     1.39938      .   S
    C915   C916      1.40192      .   S
    H927   C913      1.08341      .   S
    C1011  C1012     1.39879      .   S
    C1156  C1155     1.39932      .   S
    C1152  C1153     1.39698      .   S
    C985   C984      1.39471      .   S
    C2092  C2091     1.39774      .   S
    C1132  C1131     1.39696      .   S
    C2020  C2019     1.39621      .   S
    C2184  C2185     1.39585      .   S
    C2188  C2187     1.39757      .   S
    C1009  C1008     1.39427      .   S
    C2257  C2256     1.39541      .   S
    C913   C912      1.39269      .   S
    C2113  H2127     1.08376      .   S
    C2113  C2114     1.40078      .   S
    C888   H902      1.08121      .   S
    C888   C893      1.40594      .   S
    C1225  H1239     1.08325      .   S
    C1225  C1226     1.40184      .   S
    C2328  H2342     1.08082      .   S
    C2328  C2333     1.40674      .   S
    C2332  H2345     1.08200      .   S
    C2332  C2333     1.40653      .   S
    C2089  H2103     1.08358      .   S
    C2089  C2090     1.40315      .   S
    C892   H905      1.08192      .   S
    C892   C893      1.40553      .   S
    C2236  H2249     1.08099      .   S
    C2236  C2237     1.40678      .   S
    C1057  H1071     1.08299      .   S
    C1057  C1058     1.40255      .   S
    C2115  C2114     1.40884      .   S
    C2115  H2128     1.08132      .   S
    C2232  H2246     1.08097      .   S
    C2232  C2237     1.40643      .   S
    C2352  H2366     1.08034      .   S
    C2352  C2357     1.40691      .   S
    C988   H1001     1.08127      .   S
    C988   C989      1.41085      .   S
    C1059  H1072     1.08152      .   S
    C1059  C1058     1.40842      .   S
    C2260  H2273     1.08192      .   S
    C2260  C2261     1.40478      .   S
    C2356  H2369     1.08110      .   S
    C2356  C2357     1.40679      .   S
    C1227  C1226     1.40969      .   S
    C1227  H1240     1.08094      .   S
    C1012  H1025     1.08117      .   S
    C1012  C1013     1.40621      .   S
    C916   H929      1.08131      .   S
    C916   C917      1.41034      .   S
    C2017  H2031     1.08314      .   S
    C2017  C2018     1.40219      .   S
    C1129  H1143     1.08337      .   S
    C1129  C1130     1.40209      .   S
    C984   H998      1.07995      .   S
    C984   C989      1.41131      .   S
    C2091  H2104     1.08081      .   S
    C2091  C2090     1.40754      .   S
    C1155  H1168     1.08068      .   S
    C1155  C1154     1.40843      .   S
    C1153  H1167     1.08336      .   S
    C1153  C1154     1.40225      .   S
    C2019  H2032     1.08127      .   S
    C2019  C2018     1.40478      .   S
    C1131  H1144     1.08144      .   S
    C1131  C1130     1.40711      .   S
    C1008  C1013     1.40739      .   S
    C1008  H1022     1.08046      .   S
    C2185  H2199     1.08382      .   S
    C2185  C2186     1.40220      .   S
    C2187  H2200     1.08203      .   S
    C2187  C2186     1.40710      .   S
    C2256  C2261     1.40687      .   S
    C2256  H2270     1.08118      .   S
    C912   C917      1.41135      .   S
    C912   H926      1.07935      .   S
    C2114  C2118     1.48518      .   S
    C1226  C1230     1.48840      .   S
    C2090  C2094     1.48649      .   S
    C1058  C1062     1.48572      .   S
    C2018  C2022     1.48399      .   S
    C1154  C1158     1.48598      .   S
    C1130  C1134     1.48288      .   S
    C2186  C2190     1.48154      .   S
    C2118  H2130     1.08088      .   S
    C2118  C2119     1.34098      .   S
    H1075  C1063     1.08185      .   S
    C1230  H1242     1.08068      .   S
    C1230  C1231     1.34279      .   S
    C2094  H2106     1.08082      .   S
    C2094  C2095     1.34264      .   S
    H1147  C1135     1.08258      .   S
    H2035  C2023     1.08167      .   S
    H1171  C1159     1.08117      .   S
    C1062  C1063     1.34217      .   S
    C1062  H1074     1.08096      .   S
    H2203  C2191     1.08136      .   S
    C2022  C2023     1.34327      .   S
    C2022  H2034     1.08146      .   S
    C1134  C1135     1.34232      .   S
    C1134  H1146     1.08170      .   S
    C1158  C1159     1.34324      .   S
    C1158  H1170     1.08096      .   S
    C2190  C2191     1.34192      .   S
    C2190  H2202     1.08085      .   S
    C1063  C1064     1.48721      .   S
    C2023  C2024     1.48408      .   S
    C1135  C1136     1.48318      .   S
    C1159  C1160     1.48713      .   S
    C2191  C2192     1.48277      .   S
    H2131  C2119     1.08155      .   S
    C2119  C2120     1.48532      .   S
    H1243  C1231     1.08196      .   S
    H2107  C2095     1.08135      .   S
    C1231  C1232     1.48907      .   S
    C2095  C2096     1.48608      .   S
    H1076  C1065     1.08332      .   S
    H2135  C2125     1.08026      .   S
    H1148  C1137     1.08334      .   S
    H2036  C2025     1.08322      .   S
    H1172  C1161     1.08348      .   S
    H2111  C2101     1.08092      .   S
    H2204  C2193     1.08379      .   S
    H1247  C1237     1.08078      .   S
    C1064  C1065     1.40381      .   S
    C1064  C1069     1.41013      .   S
    C2024  C2025     1.40467      .   S
    C2024  C2029     1.40799      .   S
    C1136  C1137     1.40375      .   S
    C1136  C1141     1.40818      .   S
    C1065  C1066     1.39737      .   S
    C1160  C1161     1.40377      .   S
    C1160  C1165     1.40992      .   S
    C2192  C2193     1.40369      .   S
    C2192  C2197     1.40895      .   S
    C1137  C1138     1.39712      .   S
    C2025  C2026     1.39750      .   S
    C2125  C2120     1.41046      .   S
    C2125  C2124     1.40004      .   S
    C2120  C2121     1.40298      .   S
    C1161  C1162     1.39804      .   S
    C2193  C2194     1.39644      .   S
    C2096  C2101     1.41038      .   S
    C2096  C2097     1.40294      .   S
    C2101  C2100     1.39991      .   S
    C1232  C1237     1.41092      .   S
    C1232  C1233     1.40384      .   S
    C1237  C1236     1.40191      .   S
    H1079  C1069     1.08058      .   S
    C1069  C1068     1.39903      .   S
    H2039  C2029     1.08093      .   S
    H1175  C1165     1.08067      .   S
    H1151  C1141     1.08071      .   S
    C2029  C2028     1.39697      .   S
    C1165  C1164     1.39909      .   S
    C1141  C1140     1.39656      .   S
    C1066  H1077     1.08281      .   S
    C1066  C1067     1.40497      .   S
    H2207  C2197     1.08056      .   S
    C2197  C2196     1.39613      .   S
    H2134  C2124     1.08281      .   S
    C2026  H2037     1.08329      .   S
    C2026  C2027     1.40446      .   S
    C1138  H1149     1.08303      .   S
    C1138  C1139     1.40428      .   S
    C2124  C2123     1.40386      .   S
    C2121  H2132     1.08375      .   S
    C2121  C2122     1.39501      .   S
    C1162  H1173     1.08292      .   S
    C1162  C1163     1.40462      .   S
    H2110  C2100     1.08296      .   S
    C2097  H2108     1.08342      .   S
    C2097  C2098     1.39565      .   S
    C2100  C2099     1.40501      .   S
    C2194  H2205     1.08300      .   S
    C2194  C2195     1.40373      .   S
    C1233  H1244     1.08318      .   S
    C1233  C1234     1.39684      .   S
    H1246  C1236     1.08337      .   S
    C1236  C1235     1.40358      .   S
    C1068  C1067     1.40506      .   S
    C1068  H1078     1.08277      .   S
    C1067  C185      1.48530      .   S
    C2028  C2027     1.40576      .   S
    C2028  H2038     1.08323      .   S
    C1164  C1163     1.40402      .   S
    C1164  H1174     1.08317      .   S
    C1140  C1139     1.40468      .   S
    C1140  H1150     1.08303      .   S
    C2196  C2195     1.40307      .   S
    C2196  H2206     1.08287      .   S
    C2027  C200      1.48430      .   S
    C1139  C740      1.48385      .   S
    C1163  C182      1.48542      .   S
    C2123  C2122     1.40503      .   S
    C2123  C203      1.48405      .   S
    C2122  H2133     1.08334      .   S
    C2195  C722      1.48062      .   S
    C2098  C2099     1.40505      .   S
    C2098  H2109     1.08268      .   S
    C2099  C725      1.48498      .   S
    C1234  C1235     1.40572      .   S
    C1234  H1245     1.08266      .   S
    C1235  C743      1.48753      .   S
    H2606  C2592     1.08040      .   S
    H2678  C2664     1.08033      .   S
    H2414  C2400     1.08029      .   S
    H1622  C1608     1.08097      .   S
    H1430  C1416     1.08075      .   S
    H2486  C2472     1.08087      .   S
    H1358  C1344     1.08082      .   S
    H1553  C1540     1.08141      .   S
    H1745  C1732     1.08100      .   S
    C185   C112      1.40459      .   S
    C185   C166      1.40689      .   S
    H3089  C3076     1.08103      .   S
    H1817  C1804     1.08136      .   S
    C200   C127      1.40407      .   S
    C200   C148      1.40603      .   S
    H1841  C1828     1.08123      .   S
    H113   C112      1.08288      .   S
    C203   C145      1.40575      .   S
    C203   C130      1.40268      .   S
    C740   C685      1.40418      .   S
    C740   C667      1.40485      .   S
    H167   C166      1.08312      .   S
    C182   C109      1.40576      .   S
    C182   C163      1.40438      .   S
    H2607  C2593     1.08322      .   S
    H3161  C3148     1.08058      .   S
    C725   C652      1.40562      .   S
    C725   C703      1.40576      .   S
    C2592  C2593     1.39804      .   S
    C2592  C2597     1.40668      .   S
    H2801  C2788     1.08124      .   S
    C722   C649      1.40444      .   S
    C722   C706      1.40304      .   S
    H146   C145      1.08320      .   S
    H128   C127      1.08355      .   S
    H686   C685      1.08332      .   S
    H149   C148      1.08306      .   S
    C743   C688      1.40817      .   S
    C743   C670      1.40476      .   S
    H110   C109      1.08290      .   S
    H653   C652      1.08333      .   S
    H164   C163      1.08323      .   S
    H650   C649      1.08339      .   S
    H131   C130      1.08335      .   S
    H668   C667      1.08394      .   S
    H704   C703      1.08315      .   S
    H2679  C2665     1.08374      .   S
    H707   C706      1.08358      .   S
    C2400  C2401     1.39874      .   S
    C2400  C2405     1.41068      .   S
    H689   C688      1.08309      .   S
    C2664  C2665     1.39616      .   S
    C2664  C2669     1.40674      .   S
    C1608  C1609     1.39570      .   S
    C1608  C1613     1.40646      .   S
    H2415  C2401     1.08380      .   S
    H671   C670      1.08363      .   S
    H1910  C1896     1.08110      .   S
    C2472  C2473     1.39700      .   S
    C2472  C2477     1.40701      .   S
    C1344  C1345     1.39493      .   S
    C1344  C1349     1.40664      .   S
    C1416  C1417     1.39614      .   S
    C1416  C1421     1.40685      .   S
    H1623  C1609     1.08284      .   S
    H2487  C2473     1.08380      .   S
    H1359  C1345     1.08363      .   S
    H1431  C1417     1.08350      .   S
    C112   C111      1.40390      .   S
    C166   C165      1.40766      .   S
    H2870  C2856     1.08241      .   S
    C145   C144      1.40757      .   S
    C127   C126      1.40365      .   S
    C148   C147      1.40604      .   S
    C2593  C2594     1.40302      .   S
    C685   C684      1.40429      .   S
    C652   C651      1.40674      .   S
    C1732  C1733     1.40691      .   S
    C1732  C1731     1.40097      .   S
    C1540  C1541     1.40649      .   S
    C1540  C1539     1.40156      .   S
    C109   C108      1.40647      .   S
    C130   C129      1.40235      .   S
    C163   C162      1.40468      .   S
    C667   C666      1.40429      .   S
    C703   C702      1.40366      .   S
    C649   C648      1.40426      .   S
    C706   C705      1.40326      .   S
    C688   C687      1.40963      .   S
    C2597  C2596     1.40652      .   S
    C670   C669      1.40258      .   S
    C1804  C1805     1.40687      .   S
    C1804  C1803     1.39894      .   S
    C1828  C1829     1.40669      .   S
    C1828  C1827     1.40063      .   S
    C3076  C3077     1.40597      .   S
    C3076  C3075     1.39887      .   S
    C2401  C2402     1.40170      .   S
    C2665  C2666     1.40284      .   S
    C1609  C1610     1.40151      .   S
    H1552  C1539     1.08069      .   S
    H1744  C1731     1.08093      .   S
    C2788  C2789     1.40667      .   S
    C2788  C2787     1.40144      .   S
    C1613  C1612     1.40634      .   S
    C2405  C2404     1.41100      .   S
    C1345  C1346     1.40160      .   S
    C2473  C2474     1.40146      .   S
    C3148  C3149     1.40704      .   S
    C3148  C3147     1.39896      .   S
    C1349  C1348     1.40579      .   S
    C2477  C2476     1.40505      .   S
    C1417  C1418     1.40125      .   S
    H1816  C1803     1.08098      .   S
    C2669  C2668     1.40711      .   S
    C1896  C1901     1.40661      .   S
    C1896  C1897     1.39434      .   S
    C1421  C1420     1.40653      .   S
    H3088  C3075     1.08071      .   S
    C1733  C1728     1.40643      .   S
    H1840  C1827     1.08088      .   S
    C2856  C2861     1.40532      .   S
    C2856  C2857     1.39479      .   S
    C1541  C1536     1.40775      .   S
    H2800  C2787     1.08033      .   S
    C1829  C1824     1.40646      .   S
    H3160  C3147     1.08115      .   S
    C1901  C1900     1.40560      .   S
    C1805  C1800     1.40697      .   S
    C1731  C1730     1.40825      .   S
    C2789  C2784     1.40655      .   S
    C1539  C1538     1.40858      .   S
    C2861  C2860     1.40499      .   S
    C3077  C3072     1.40724      .   S
    C1803  C1802     1.40827      .   S
    H1911  C1897     1.08374      .   S
    C3149  C3144     1.40695      .   S
    C1827  C1826     1.40869      .   S
    C3075  C3074     1.40817      .   S
    C2787  C2786     1.40946      .   S
    H2871  C2857     1.08365      .   S
    C3147  C3146     1.40772      .   S
    C1897  C1898     1.40032      .   S
    H2610  C2598     1.08098      .   S
    C111   C183      1.40403      .   S
    C165   C183      1.40585      .   S
    C2857  C2858     1.40104      .   S
    H3092  C3081     1.08325      .   S
    C144   C201      1.40655      .   S
    H3091  C3079     1.08197      .   S
    C126   C198      1.40530      .   S
    C651   C723      1.40526      .   S
    C147   C198      1.40589      .   S
    C129   C201      1.40415      .   S
    C684   C738      1.40569      .   S
    C2594  C2598     1.48624      .   S
    C2594  C2595     1.40818      .   S
    H1626  C1614     1.08229      .   S
    H2682  C2670     1.08160      .   S
    C702   C723      1.40339      .   S
    C108   C180      1.40573      .   S
    C162   C180      1.40464      .   S
    C666   C738      1.40457      .   S
    C687   C741      1.40643      .   S
    C648   C720      1.40459      .   S
    H1362  C1350     1.08170      .   S
    C669   C741      1.40475      .   S
    C705   C720      1.40481      .   S
    C2596  C2595     1.39977      .   S
    C2596  H2609     1.08170      .   S
    C1610  C1614     1.48095      .   S
    C1610  C1611     1.40688      .   S
    C2402  C2406     1.48558      .   S
    C2402  C2403     1.40641      .   S
    C1612  H1625     1.08073      .   S
    C1612  C1611     1.39777      .   S
    C2666  C2670     1.48496      .   S
    C2666  C2667     1.40823      .   S
    C1346  C1350     1.48022      .   S
    C1346  C1347     1.40655      .   S
    C1348  H1361     1.08170      .   S
    C1348  C1347     1.39762      .   S
    C2404  H2417     1.07985      .   S
    C2404  C2403     1.39725      .   S
    C1900  H1913     1.08181      .   S
    C1900  C1899     1.39938      .   S
    C2474  C2478     1.48136      .   S
    C2474  C2475     1.40707      .   S
    C1728  H1742     1.08048      .   S
    C1728  C1729     1.39659      .   S
    C2860  H2873     1.08231      .   S
    C2860  C2859     1.40059      .   S
    C2476  H2489     1.08179      .   S
    C2476  C2475     1.39627      .   S
    C1418  C1422     1.48212      .   S
    C1418  C1419     1.40707      .   S
    C1824  H1838     1.08091      .   S
    C1824  C1825     1.39511      .   S
    C2668  C2667     1.39912      .   S
    C2668  H2681     1.08099      .   S
    H2418  C2406     1.08179      .   S
    C1420  H1433     1.08082      .   S
    C1420  C1419     1.39785      .   S
    H2615  C2605     1.08043      .   S
    C1536  H1550     1.08062      .   S
    C1536  C1537     1.39572      .   S
    C183   H184      1.08289      .   S
    C2784  H2798     1.08087      .   S
    C2784  C2785     1.39737      .   S
    C1730  C1729     1.40207      .   S
    C1730  C1734     1.48565      .   S
    C2598  C2599     1.34388      .   S
    C201   H202      1.08276      .   S
    C1800  H1814     1.08035      .   S
    C1800  C1801     1.39632      .   S
    H2490  C2478     1.08164      .   S
    H1631  C1621     1.08117      .   S
    C198   H199      1.08297      .   S
    C723   H724      1.08304      .   S
    H1434  C1422     1.08147      .   S
    H2687  C2677     1.08069      .   S
    C1538  C1537     1.40239      .   S
    C1538  C1542     1.48601      .   S
    H1367  C1357     1.08114      .   S
    C180   H181      1.08314      .   S
    C1898  C1899     1.40807      .   S
    C1898  C1902     1.48019      .   S
    C738   H739      1.08342      .   S
    H1555  C1543     1.08161      .   S
    C1826  C1825     1.40242      .   S
    C1826  C1830     1.48492      .   S
    C741   H742      1.08310      .   S
    H1747  C1735     1.08156      .   S
    C3072  H3086     1.08046      .   S
    C3072  C3073     1.39622      .   S
    C720   H721      1.08286      .   S
    C2595  H2608     1.08104      .   S
    C1802  C1801     1.40146      .   S
    C1802  C1806     1.48426      .   S
    C1614  C1615     1.34056      .   S
    C2786  C2785     1.40335      .   S
    C2786  C2790     1.48843      .   S
    C2858  C2859     1.40829      .   S
    C2858  C2862     1.48066      .   S
    C2406  C2407     1.34262      .   S
    C3144  H3158     1.08101      .   S
    C3144  C3145     1.39839      .   S
    C2670  C2671     1.34247      .   S
    C1611  H1624     1.08092      .   S
    H1819  C1807     1.08114      .   S
    C1350  C1351     1.34092      .   S
    C2403  H2416     1.08128      .   S
    C1347  H1360     1.08129      .   S
    C3074  C3073     1.40099      .   S
    C3074  C3078     1.48371      .   S
    C2478  C2479     1.33996      .   S
    H2803  C2791     1.08231      .   S
    C1899  H1912     1.08204      .   S
    C2475  H2488     1.08138      .   S
    C2667  H2680     1.08094      .   S
    C3146  C3145     1.40300      .   S
    C3146  C3150     1.48598      .   S
    H1843  C1831     1.08091      .   S
    C2859  H2872     1.08211      .   S
    C1422  C1423     1.34087      .   S
    C1729  H1743     1.08339      .   S
    C1419  H1432     1.08163      .   S
    C3081  C3082     1.39557      .   S
    C3081  C3080     1.40254      .   S
    C1825  H1839     1.08347      .   S
    C3079  C3078     1.34126      .   S
    C3079  C3080     1.48349      .   S
    H3163  C3151     1.08201      .   S
    H3093  C3082     1.08284      .   S
    C2785  H2799     1.08276      .   S
    C1537  H1551     1.08298      .   S
    C1801  H1815     1.08300      .   S
    C1735  C1734     1.34323      .   S
    C1735  C1736     1.48746      .   S
    C1734  H1746     1.08129      .   S
    C1543  C1542     1.34295      .   S
    C1543  C1544     1.48728      .   S
    C1902  H1914     1.07874      .   S
    C1902  C1903     1.34043      .   S
    C1542  H1554     1.08168      .   S
    C1807  C1806     1.34253      .   S
    C1807  C1808     1.48494      .   S
    H2614  C2604     1.08299      .   S
    C2862  H2874     1.07978      .   S
    C2862  C2863     1.34152      .   S
    C3073  H3087     1.08366      .   S
    C1830  C1831     1.34267      .   S
    C1830  H1842     1.08074      .   S
    H2875  C2863     1.08236      .   S
    C3145  H3159     1.08324      .   S
    C2791  C2790     1.34443      .   S
    C2791  C2792     1.48949      .   S
    C1806  H1818     1.08065      .   S
    C2790  H2802     1.08135      .   S
    C1831  C1832     1.48740      .   S
    C2605  C2604     1.39951      .   S
    C2605  C2600     1.40957      .   S
    H1915  C1903     1.08247      .   S
    H1630  C1620     1.08343      .   S
    H2686  C2676     1.08315      .   S
    C2407  H2419     1.08163      .   S
    C2407  C2408     1.48502      .   S
    H1366  C1356     1.08298      .   S
    C3151  C3150     1.34326      .   S
    C3151  C3152     1.48663      .   S
    C3078  H3090     1.08179      .   S
    C2863  C2864     1.48654      .   S
    C2479  H2491     1.08250      .   S
    C2479  C2480     1.48160      .   S
    C3150  H3162     1.08166      .   S
    C1621  C1620     1.39563      .   S
    C1621  C1616     1.40837      .   S
    C1903  C1904     1.48656      .   S
    C3082  C3083     1.40569      .   S
    C2677  C2676     1.39815      .   S
    C2677  C2672     1.40956      .   S
    C1357  C1356     1.39525      .   S
    C1357  C1352     1.40812      .   S
    C3080  C3085     1.40954      .   S
    C1423  H1435     1.08197      .   S
    C1423  C1424     1.48181      .   S
    H1556  C1545     1.08294      .   S
    H1748  C1737     1.08306      .   S
    C2599  C2600     1.48774      .   S
    C2599  H2611     1.08144      .   S
    H2879  C2869     1.07941      .   S
    H1820  C1809     1.08309      .   S
    H2423  C2413     1.08054      .   S
    C1736  C1737     1.40424      .   S
    C1736  C1741     1.40921      .   S
    C1544  C1545     1.40420      .   S
    C1544  C1549     1.40965      .   S
    C1615  C1616     1.48161      .   S
    C1615  H1627     1.08275      .   S
    H2804  C2793     1.08302      .   S
    H1919  C1909     1.07867      .   S
    H2495  C2485     1.08040      .   S
    C2604  C2603     1.40434      .   S
    C1808  C1809     1.40427      .   S
    C1808  C1813     1.40925      .   S
    C2671  C2672     1.48625      .   S
    C2671  H2683     1.08149      .   S
    C1351  C1352     1.48129      .   S
    C1351  H1363     1.08200      .   S
    H1844  C1833     1.08329      .   S
    C2408  C2413     1.40938      .   S
    C2408  C2409     1.40333      .   S
    H3164  C3153     1.08359      .   S
    C2792  C2793     1.40552      .   S
    C2792  C2797     1.41002      .   S
    C1737  C1738     1.39800      .   S
    C1545  C1546     1.39844      .   S
    H1751  C1741     1.08079      .   S
    C1832  C1833     1.40390      .   S
    C1832  C1837     1.41046      .   S
    H1439  C1429     1.08115      .   S
    C1620  C1619     1.40347      .   S
    C2480  C2485     1.40932      .   S
    C2480  C2481     1.40314      .   S
    C2864  C2869     1.41075      .   S
    C2864  C2865     1.40329      .   S
    C2413  C2412     1.40043      .   S
    H1559  C1549     1.08071      .   S
    C1809  C1810     1.39776      .   S
    C2676  C2675     1.40418      .   S
    C1356  C1355     1.40397      .   S
    C2869  C2868     1.39957      .   S
    C1904  C1909     1.41159      .   S
    C1904  C1905     1.40361      .   S
    H137   C136      1.08342      .   S
    C3152  C3153     1.40504      .   S
    C3152  C3157     1.40876      .   S
    C2793  C2794     1.39882      .   S
    C2485  C2484     1.39842      .   S
    H170   C169      1.08311      .   S
    C1741  C1740     1.39832      .   S
    H1823  C1813     1.08082      .   S
    C2600  C2601     1.40467      .   S
    H2807  C2797     1.08060      .   S
    H116   C115      1.08315      .   S
    H155   C154      1.08360      .   S
    C1909  C1908     1.39819      .   S
    C1424  C1429     1.40927      .   S
    C1424  C1425     1.40206      .   S
    C1549  C1548     1.39852      .   S
    H1847  C1837     1.08019      .   S
    C1833  C1834     1.39783      .   S
    H710   C709      1.08329      .   S
    H677   C676      1.08378      .   S
    C3153  C3154     1.39781      .   S
    H659   C658      1.08309      .   S
    H134   C133      1.08346      .   S
    C1429  C1428     1.39850      .   S
    C1813  C1812     1.39692      .   S
    H152   C151      1.08334      .   S
    C1616  C1617     1.40370      .   S
    C2797  C2796     1.39876      .   S
    H2420  C2409     1.08392      .   S
    H674   C673      1.08275      .   S
    C2672  C2673     1.40461      .   S
    H119   C118      1.08361      .   S
    C1352  C1353     1.40323      .   S
    H2492  C2481     1.08349      .   S
    C1837  C1836     1.39757      .   S
    C2409  C2410     1.39579      .   S
    H692   C691      1.08343      .   S
    H3167  C3157     1.08066      .   S
    H656   C655      1.08316      .   S
    H2876  C2865     1.08331      .   S
    C2481  C2482     1.39403      .   S
    H713   C712      1.08336      .   S
    H1916  C1905     1.08335      .   S
    C2865  C2866     1.39582      .   S
    H173   C172      1.08317      .   S
    H695   C694      1.08326      .   S
    C1905  C1906     1.39459      .   S
    H1436  C1425     1.08357      .   S
    C1546  H1557     1.08299      .   S
    C1546  C1547     1.40551      .   S
    C3157  C3156     1.39882      .   S
    C2412  H2422     1.08323      .   S
    C2412  C2411     1.40480      .   S
    C1738  H1749     1.08331      .   S
    C1738  C1739     1.40484      .   S
    C2868  H2878     1.08289      .   S
    C2868  C2867     1.40378      .   S
    C1425  C1426     1.39529      .   S
    C1810  H1821     1.08290      .   S
    C1810  C1811     1.40426      .   S
    C2484  H2494     1.08291      .   S
    C2484  C2483     1.40352      .   S
    C2794  H2805     1.08311      .   S
    C2794  C2795     1.40471      .   S
    C1908  H1918     1.08303      .   S
    C1908  C1907     1.40236      .   S
    C1740  C1739     1.40496      .   S
    C1740  H1750     1.08333      .   S
    C1548  C1547     1.40488      .   S
    C1548  H1558     1.08281      .   S
    C1834  H1845     1.08333      .   S
    C1834  C1835     1.40385      .   S
    C1428  H1438     1.08243      .   S
    C1428  C1427     1.40434      .   S
    C3154  H3165     1.08325      .   S
    C3154  C3155     1.40391      .   S
    C3083  C209      1.48339      .   S
    C3083  C3084     1.40397      .   S
    C1812  C1811     1.40371      .   S
    C1812  H1822     1.08308      .   S
    C2796  C2795     1.40485      .   S
    C2796  H2806     1.08300      .   S
    C2410  C2411     1.40513      .   S
    C2410  H2421     1.08275      .   S
    C136   C135      1.40294      .   S
    C136   C209      1.40286      .   S
    C3085  H3095     1.08128      .   S
    C3085  C3084     1.39908      .   S
    C1739  C188      1.48464      .   S
    C1547  C197      1.48649      .   S
    C169   C168      1.40460      .   S
    C169   C197      1.40460      .   S
    C2482  C2483     1.40416      .   S
    C2482  H2493     1.08311      .   S
    C1836  C1835     1.40341      .   S
    C1836  H1846     1.08368      .   S
    C115   C114      1.40409      .   S
    C115   C188      1.40465      .   S
    C2866  C2867     1.40599      .   S
    C2866  H2877     1.08303      .   S
    C2411  C212      1.48571      .   S
    C154   C153      1.40697      .   S
    C154   C212      1.40551      .   S
    C1811  C749      1.48259      .   S
    C1906  C1907     1.40396      .   S
    C1906  H1917     1.08356      .   S
    C676   C675      1.40393      .   S
    C676   C749      1.40310      .   S
    C709   C708      1.40477      .   S
    C709   C737      1.40335      .   S
    C2483  C737      1.48012      .   S
    C2867  C731      1.48579      .   S
    C2795  C206      1.48624      .   S
    C151   C150      1.40612      .   S
    C151   C215      1.40568      .   S
    C133   C132      1.40575      .   S
    C133   C206      1.40489      .   S
    C3156  C3155     1.40569      .   S
    C3156  H3166     1.08336      .   S
    C658   C657      1.40767      .   S
    C658   C731      1.40629      .   S
    C1426  C1427     1.40585      .   S
    C1426  H1437     1.08266      .   S
    C2603  C215      1.48566      .   S
    C2603  C2602     1.40466      .   S
    C1907  C746      1.48122      .   S
    C673   C672      1.40670      .   S
    C673   C746      1.40467      .   S
    C1835  C191      1.48250      .   S
    C118   C117      1.40332      .   S
    C118   C191      1.40369      .   S
    C1427  C755      1.48325      .   S
    C691   C690      1.40624      .   S
    C691   C755      1.40400      .   S
    C655   C654      1.40482      .   S
    C655   C728      1.40560      .   S
    C3155  C728      1.48561      .   S
    C712   C711      1.40577      .   S
    C712   C734      1.40467      .   S
    C694   C693      1.40392      .   S
    C694   C752      1.40375      .   S
    C172   C171      1.40388      .   S
    C172   C194      1.40304      .   S
    C1619  C752      1.48000      .   S
    C1619  C1618     1.40412      .   S
    C2675  C734      1.48460      .   S
    C2675  C2674     1.40497      .   S
    C1355  C194      1.48025      .   S
    C1355  C1354     1.40413      .   S
    C168   C195      1.40529      .   S
    C135   C207      1.40483      .   S
    C2601  C2602     1.39864      .   S
    C2601  H2612     1.08319      .   S
    C209   C157      1.40479      .   S
    C114   C186      1.40551      .   S
    C153   C210      1.40671      .   S
    C197   C124      1.40684      .   S
    C188   C178      1.40564      .   S
    C3084  H3094     1.08307      .   S
    C675   C747      1.40509      .   S
    C708   C735      1.40633      .   S
    C212   C139      1.40454      .   S
    C150   C213      1.40505      .   S
    C132   C204      1.40517      .   S
    C1617  C1618     1.39692      .   S
    C1617  H1628     1.08347      .   S
    C749   C697      1.40458      .   S
    C737   C664      1.40216      .   S
    C657   C729      1.40706      .   S
    C2673  C2674     1.39759      .   S
    C2673  H2684     1.08341      .   S
    C206   C160      1.40607      .   S
    C1353  C1354     1.39718      .   S
    C1353  H1364     1.08331      .   S
    C731   C715      1.40202      .   S
    C117   C189      1.40372      .   S
    C215   C142      1.40508      .   S
    C672   C744      1.40633      .   S
    C171   C192      1.40716      .   S
    C711   C732      1.40875      .   S
    C690   C753      1.40706      .   S
    C693   C750      1.40517      .   S
    C654   C726      1.40465      .   S
    C746   C700      1.40141      .   S
    C191   C175      1.40537      .   S
    C755   C682      1.40262      .   S
    C728   C718      1.40573      .   S
    C752   C679      1.40270      .   S
    C734   C661      1.40396      .   S
    C194   C121      1.40207      .   S
    C2602  H2613     1.08290      .   S
    C1618  H1629     1.08270      .   S
    C2674  H2685     1.08311      .   S
    C1354  H1365     1.08302      .   S
    C195   H196      1.08349      .   S
    C195   C123      1.40632      .   S
    C186   H187      1.08321      .   S
    C186   C177      1.40510      .   S
    C207   H208      1.08289      .   S
    C207   C156      1.40742      .   S
    C157   H158      1.08320      .   S
    C157   C156      1.40677      .   S
    C124   H125      1.08318      .   S
    C124   C123      1.40695      .   S
    C178   H179      1.08352      .   S
    C178   C177      1.40690      .   S
    C210   H211      1.08302      .   S
    C210   C138      1.40530      .   S
    C213   H214      1.08329      .   S
    C213   C141      1.40353      .   S
    C747   H748      1.08334      .   S
    C747   C696      1.40548      .   S
    C139   H140      1.08328      .   S
    C139   C138      1.40422      .   S
    C204   H205      1.08289      .   S
    C204   C159      1.40576      .   S
    C735   H736      1.08319      .   S
    C735   C663      1.40380      .   S
    C697   H698      1.08344      .   S
    C697   C696      1.40524      .   S
    C160   H161      1.08377      .   S
    C160   C159      1.40699      .   S
    C729   H730      1.08330      .   S
    C729   C714      1.40467      .   S
    C142   H143      1.08337      .   S
    C142   C141      1.40484      .   S
    C189   H190      1.08314      .   S
    C189   C174      1.40567      .   S
    C664   H665      1.08368      .   S
    C664   C663      1.40218      .   S
    C715   H716      1.08353      .   S
    C715   C714      1.40245      .   S
    C750   H751      1.08295      .   S
    C750   C678      1.40470      .   S
    C192   H193      1.08306      .   S
    C192   C120      1.40704      .   S
    C744   H745      1.08289      .   S
    C744   C699      1.40310      .   S
    C753   H754      1.08318      .   S
    C753   C681      1.40442      .   S
    C732   H733      1.08354      .   S
    C732   C660      1.40781      .   S
    C726   H727      1.08301      .   S
    C726   C717      1.40533      .   S
    C175   H176      1.08288      .   S
    C175   C174      1.40670      .   S
    C700   H701      1.08312      .   S
    C700   C699      1.40222      .   S
    C679   H680      1.08335      .   S
    C679   C678      1.40409      .   S
    C682   H683      1.08261      .   S
    C682   C681      1.40347      .   S
    C718   H719      1.08346      .   S
    C718   C717      1.40604      .   S
    C121   H122      1.08359      .   S
    C121   C120      1.40343      .   S
    C661   H662      1.08322      .   S
    C661   C660      1.40461      .   S
    C48    C49       1.40246      .   S
    C48    C99       1.40690      .   S
    C30    C31       1.40465      .   S
    C30    C102      1.40542      .   S
    C15    C16       1.40240      .   S
    C15    C87       1.40511      .   S
    H50    C49       1.08351      .   S
    C69    C70       1.40301      .   S
    C69    C78       1.40614      .   S
    H32    C31       1.08339      .   S
    C66    C67       1.40349      .   S
    C66    C81       1.40475      .   S
    H17    C16       1.08355      .   S
    C12    C13       1.40744      .   S
    C12    C84       1.40567      .   S
    C789   C790      1.40314      .   S
    C789   C861      1.40260      .   S
    C825   C826      1.40258      .   S
    C825   C834      1.40478      .   S
    H68    C67       1.08292      .   S
    H100   C99       1.08350      .   S
    C771   C772      1.40369      .   S
    C771   C843      1.40411      .   S
    C804   C805      1.40393      .   S
    C804   C855      1.40328      .   S
    H103   C102      1.08331      .   S
    H71    C70       1.08356      .   S
    H88    C87       1.08284      .   S
    C51    C52       1.40561      .   S
    C51    C96       1.40508      .   S
    H827   C826      1.08349      .   S
    C822   C823      1.40191      .   S
    C822   C837      1.40184      .   S
    C33    C34       1.40704      .   S
    C33    C105      1.40480      .   S
    H791   C790      1.08287      .   S
    H14    C13       1.08349      .   S
    H806   C805      1.08330      .   S
    H79    C78       1.08309      .   S
    H53    C52       1.08322      .   S
    H82    C81       1.08342      .   S
    H773   C772      1.08272      .   S
    C768   C769      1.40386      .   S
    C768   C840      1.40404      .   S
    H85    C84       1.08329      .   S
    C807   C808      1.40540      .   S
    C807   C852      1.40670      .   S
    C786   C787      1.40762      .   S
    C786   C858      1.40584      .   S
    H824   C823      1.08331      .   S
    H770   C769      1.08300      .   S
    H862   C861      1.08372      .   S
    H844   C843      1.08295      .   S
    H35    C34       1.08330      .   S
    H809   C808      1.08295      .   S
    H106   C105      1.08276      .   S
    H835   C834      1.08327      .   S
    H856   C855      1.08317      .   S
    H838   C837      1.08285      .   S
    H97    C96       1.08311      .   S
    H788   C787      1.08344      .   S
    C49    C101      1.40256      .   S
    H859   C858      1.08295      .   S
    C31    C104      1.40609      .   S
    H853   C852      1.08265      .   S
    H841   C840      1.08317      .   S
    C99    C27       1.40887      .   S
    C16    C89       1.40216      .   S
    H2781  C2770     1.08301      .   S
    C102   C45       1.40658      .   S
    C87    C60       1.40853      .   S
    C70    C80       1.40368      .   S
    C67    C83       1.40399      .   S
    C78    C6        1.40860      .   S
    C826   C836      1.40227      .   S
    C13    C86       1.40543      .   S
    C790   C863      1.40292      .   S
    C81    C9        1.40585      .   S
    C84    C63       1.40450      .   S
    C805   C857      1.40437      .   S
    C52    C98       1.40427      .   S
    C861   C798      1.40514      .   S
    C772   C845      1.40533      .   S
    C823   C839      1.40221      .   S
    C834   C762      1.40692      .   S
    C843   C816      1.40595      .   S
    C96    C24       1.40471      .   S
    C855   C783      1.40579      .   S
    C34    C107      1.40671      .   S
    C105   C42       1.40381      .   S
    C837   C765      1.40566      .   S
    C769   C842      1.40486      .   S
    C808   C854      1.40418      .   S
    C787   C860      1.40795      .   S
    C858   C801      1.40513      .   S
    C852   C780      1.40655      .   S
    C840   C819      1.40570      .   S
    H2780  C2769     1.08339      .   S
    C101   C2987     1.48435      .   S
    C101   C28       1.40529      .   S
    C2770  C2769     1.39719      .   S
    C2770  C2771     1.40484      .   S
    C104   C46       1.40657      .   S
    C104   C2507     1.48873      .   S
    C27    C28       1.40808      .   S
    C89    C61       1.40518      .   S
    C89    C1451     1.48411      .   S
    C45    C46       1.40722      .   S
    C80    C7        1.40585      .   S
    C80    C1643     1.48565      .   S
    C60    C61       1.40791      .   S
    C83    C10       1.40553      .   S
    C83    C1931     1.48354      .   S
    C6     C7        1.40776      .   S
    C836   C3059     1.48165      .   S
    C836   C763      1.40435      .   S
    C86    C64       1.40313      .   S
    C86    C1259     1.48453      .   S
    C98    C25       1.40399      .   S
    C98    C2891     1.48330      .   S
    C863   C799      1.40554      .   S
    C863   C1331     1.48291      .   S
    C9     C10       1.40671      .   S
    C63    C64       1.40402      .   S
    C857   C784      1.40571      .   S
    C857   C1715     1.48616      .   S
    C839   C766      1.40523      .   S
    C839   C2963     1.48136      .   S
    C798   C799      1.40757      .   S
    C24    C25       1.40494      .   S
    C762   C763      1.40569      .   S
    C107   C43       1.40544      .   S
    C107   C2699     1.48639      .   S
    C765   C766      1.40766      .   S
    C42    C43       1.40412      .   S
    C845   C817      1.40597      .   S
    C845   C2579     1.48485      .   S
    C854   C2003     1.48092      .   S
    C854   C781      1.40255      .   S
    C783   C784      1.40675      .   S
    C842   C2771     1.48634      .   S
    C842   C820      1.40722      .   S
    C816   C817      1.40584      .   S
    C860   C802      1.40627      .   S
    C860   C1523     1.48993      .   S
    C801   C802      1.40605      .   S
    H2517  C2506     1.08263      .   S
    H2997  C2986     1.08325      .   S
    C780   C781      1.40395      .   S
    C819   C820      1.40742      .   S
    C2769  C2768     1.40437      .   S
    H1461  C1450     1.08324      .   S
    H1941  C1930     1.08284      .   S
    H1653  C1642     1.08319      .   S
    C2987  C2986     1.40545      .   S
    C2987  C2988     1.40316      .   S
    H3069  C3058     1.08316      .   S
    C28    H29       1.08301      .   S
    H1725  C1714     1.08255      .   S
    H2589  C2578     1.08323      .   S
    C46    H47       1.08370      .   S
    C61    H62       1.08326      .   S
    H1341  C1330     1.08357      .   S
    C7     H8        1.08324      .   S
    C2507  C2506     1.40593      .   S
    C2507  C2508     1.40554      .   S
    C1451  C1450     1.40513      .   S
    C1451  C1452     1.40363      .   S
    C2986  C2985     1.39628      .   S
    C10    H11       1.08356      .   S
    C1643  C1642     1.40605      .   S
    C1643  C1644     1.40422      .   S
    C64    H65       1.08402      .   S
    H2902  C2892     1.08297      .   S
    C1931  C1930     1.40506      .   S
    C1931  C1932     1.40348      .   S
    C3059  C3058     1.40443      .   S
    C3059  C3060     1.40364      .   S
    C25    H26       1.08358      .   S
    H1270  C1260     1.08393      .   S
    C763   H764      1.08343      .   S
    H2973  C2962     1.08340      .   S
    C2891  C2892     1.40412      .   S
    C2891  C2890     1.40433      .   S
    C799   H800      1.08279      .   S
    C2506  C2505     1.39771      .   S
    C1331  C1330     1.40451      .   S
    C1331  C1332     1.40324      .   S
    C1259  C1260     1.40260      .   S
    C1259  C1258     1.40434      .   S
    H2710  C2700     1.08258      .   S
    C766   H767      1.08350      .   S
    H2014  C2004     1.08349      .   S
    C784   H785      1.08391      .   S
    C1715  C1714     1.40543      .   S
    C1715  C1716     1.40407      .   S
    C43    H44       1.08360      .   S
    C2963  C2962     1.40460      .   S
    C2963  C2964     1.40320      .   S
    C1450  C1449     1.39607      .   S
    H1534  C1524     1.08254      .   S
    C2771  C2772     1.40425      .   S
    C817   H818      1.08358      .   S
    C2003  C2004     1.40374      .   S
    C2003  C2002     1.40383      .   S
    C1642  C1641     1.39572      .   S
    C1930  C1929     1.39625      .   S
    C3058  C3057     1.39529      .   S
    C781   H782      1.08390      .   S
    C802   H803      1.08352      .   S
    C2699  C2700     1.40491      .   S
    C2699  C2698     1.40520      .   S
    H2998  C2988     1.08268      .   S
    C1714  C1713     1.39653      .   S
    C2579  C2578     1.40542      .   S
    C2579  C2580     1.40456      .   S
    C820   H821      1.08334      .   S
    C1330  C1329     1.39497      .   S
    C1523  C1524     1.40569      .   S
    C1523  C1522     1.40566      .   S
    H2901  C2890     1.08270      .   S
    C2892  C2893     1.39808      .   S
    C2962  C2961     1.39521      .   S
    C2988  C2989     1.39987      .   S
    H1462  C1452     1.08290      .   S
    C2578  C2577     1.39559      .   S
    H2974  C2964     1.08281      .   S
    H1269  C1258     1.08330      .   S
    H3070  C3060     1.08295      .   S
    H1654  C1644     1.08258      .   S
    C1260  C1261     1.39827      .   S
    H1942  C1932     1.08314      .   S
    H1342  C1332     1.08287      .   S
    C2004  C2005     1.39658      .   S
    H2013  C2002     1.08271      .   S
    C2700  C2701     1.39908      .   S
    C1452  C1453     1.39992      .   S
    C2890  C2889     1.39715      .   S
    C1524  C1525     1.40020      .   S
    H2518  C2508     1.08272      .   S
    C3060  C3061     1.39885      .   S
    C1644  C1645     1.40043      .   S
    C1932  C1933     1.39920      .   S
    C2964  C2965     1.39899      .   S
    C1332  C1333     1.40034      .   S
    H1726  C1716     1.08325      .   S
    C2508  C2509     1.40121      .   S
    C1258  C1257     1.39793      .   S
    H2709  C2698     1.08234      .   S
    C2985  H2996     1.08375      .   S
    C2985  C2984     1.40292      .   S
    H1533  C1522     1.08232      .   S
    C2002  C2001     1.39670      .   S
    C1716  C1717     1.40000      .   S
    C2505  H2516     1.08384      .   S
    C2505  C2504     1.40286      .   S
    C2698  C2697     1.39820      .   S
    C1449  H1460     1.08367      .   S
    C1449  C1448     1.40273      .   S
    H2590  C2580     1.08299      .   S
    C1522  C1521     1.39945      .   S
    C1641  H1652     1.08395      .   S
    C1641  C1640     1.40282      .   S
    C3057  H3068     1.08384      .   S
    C3057  C3056     1.40249      .   S
    C1929  H1940     1.08353      .   S
    C1929  C1928     1.40401      .   S
    C2580  C2581     1.39982      .   S
    C1713  H1724     1.08332      .   S
    C1713  C1712     1.40406      .   S
    C1329  H1340     1.08345      .   S
    C1329  C1328     1.40368      .   S
    C2961  H2972     1.08288      .   S
    C2961  C2960     1.40233      .   S
    C2989  C2984     1.41022      .   S
    C2989  H2999     1.08075      .   S
    C2893  H2903     1.08008      .   S
    C2893  C2888     1.40960      .   S
    H2779  C2767     1.08143      .   S
    C2577  H2588     1.08360      .   S
    C2577  C2576     1.40269      .   S
    C1453  C1448     1.41063      .   S
    C1453  H1463     1.08021      .   S
    C2984  C2983     1.48634      .   S
    C2965  C2960     1.41126      .   S
    C2965  H2975     1.08064      .   S
    C2005  H2015     1.08052      .   S
    C2005  C2000     1.40933      .   S
    C3061  C3056     1.40894      .   S
    C3061  H3071     1.08092      .   S
    C1645  C1640     1.41022      .   S
    C1645  H1655     1.08030      .   S
    C1933  C1928     1.41072      .   S
    C1933  H1943     1.08034      .   S
    C1261  H1271     1.07974      .   S
    C1261  C1256     1.41070      .   S
    C1333  C1328     1.41027      .   S
    C1333  H1343     1.08051      .   S
    C2889  C2888     1.40440      .   S
    C2889  H2900     1.08346      .   S
    C1525  H1535     1.08027      .   S
    C1525  C1520     1.41025      .   S
    C2701  H2711     1.08099      .   S
    C2701  C2696     1.40930      .   S
    C1448  C1447     1.48566      .   S
    C2509  C2504     1.40950      .   S
    C2509  H2519     1.08121      .   S
    C1717  C1712     1.41000      .   S
    C1717  H1727     1.08060      .   S
    C3056  C3055     1.48232      .   S
    C1640  C1639     1.48629      .   S
    C1928  C1927     1.48623      .   S
    C2001  C2000     1.40400      .   S
    C2001  H2012     1.08394      .   S
    C2960  C2959     1.48506      .   S
    C1257  C1256     1.40432      .   S
    C1257  H1268     1.08340      .   S
    C1328  C1327     1.48495      .   S
    C2768  C2767     1.48772      .   S
    C2768  C2773     1.40998      .   S
    C2504  C2503     1.48714      .   S
    C1712  C1711     1.48666      .   S
    C2888  C2887     1.48635      .   S
    C1521  C1520     1.40492      .   S
    C1521  H1532     1.08290      .   S
    H2995  C2983     1.08154      .   S
    C2697  C2696     1.40407      .   S
    C2697  H2708     1.08332      .   S
    C2581  C2576     1.40961      .   S
    C2581  H2591     1.08037      .   S
    H2898  C2886     1.08174      .   S
    C2000  C1999     1.48436      .   S
    H2010  C1998     1.08106      .   S
    C1256  C1255     1.48969      .   S
    C2576  C2575     1.48517      .   S
    H1459  C1447     1.08113      .   S
    H2895  C2881     1.08284      .   S
    H2007  C1993     1.08299      .   S
    C1520  C1519     1.49121      .   S
    H1651  C1639     1.08152      .   S
    H3067  C3055     1.08208      .   S
    H2515  C2503     1.08202      .   S
    C2983  C2982     1.34192      .   S
    H2992  C2979     1.08065      .   S
    H2706  C2694     1.08134      .   S
    H2703  C2689     1.08325      .   S
    C2772  C2773     1.39973      .   S
    C2772  H2782     1.08311      .   S
    C2696  C2695     1.48688      .   S
    H1530  C1518     1.08054      .   S
    H2971  C2959     1.08117      .   S
    H1939  C1927     1.08159      .   S
    H1456  C1443     1.08124      .   S
    H1723  C1711     1.08113      .   S
    H1648  C1635     1.08101      .   S
    H1339  C1327     1.08226      .   S
    H3064  C3051     1.08140      .   S
    H1527  C1513     1.08331      .   S
    H1336  C1323     1.08147      .   S
    C1447  C1446     1.34037      .   S
    H2512  C2499     1.08118      .   S
    C2767  C2766     1.34325      .   S
    H1266  C1254     1.08020      .   S
    H2968  C2955     1.08109      .   S
    H1936  C1923     1.08132      .   S
    C2959  C2958     1.34049      .   S
    C1639  C1638     1.34228      .   S
    C3055  C3054     1.34049      .   S
    H1720  C1707     1.08096      .   S
    C1927  C1926     1.34192      .   S
    C1327  C1326     1.34173      .   S
    H91    C90       1.08297      .   S
    C2503  C2502     1.34332      .   S
    H73    C72       1.08337      .   S
    H2776  C2763     1.08104      .   S
    C1711  C1710     1.34223      .   S
    H76    C75       1.08375      .   S
    H2587  C2575     1.08229      .   S
    H850   C849      1.08274      .   S
    H94    C93       1.08293      .   S
    H2584  C2571     1.08073      .   S
    H1263  C1249     1.08364      .   S
    H832   C831      1.08309      .   S
    C2887  C2886     1.34277      .   S
    C2887  H2899     1.08182      .   S
    C2886  C2882     1.48527      .   S
    H829   C828      1.08351      .   S
    H847   C846      1.08321      .   S
    C1998  C1999     1.34187      .   S
    C1998  C1994     1.48377      .   S
    C2575  C2574     1.34215      .   S
    C2773  H2783     1.08060      .   S
    C1999  H2011     1.08135      .   S
    C1518  C1519     1.34443      .   S
    C1518  C1514     1.48956      .   S
    C1255  C1254     1.34289      .   S
    C1255  H1267     1.08121      .   S
    C1519  H1531     1.08196      .   S
    C2694  C2695     1.34189      .   S
    C2694  C2690     1.48626      .   S
    C1254  C1250     1.48670      .   S
    C2881  C2882     1.40330      .   S
    C2881  C2880     1.39743      .   S
    C2695  H2707     1.08239      .   S
    C1993  C1994     1.40228      .   S
    C1993  C1992     1.39602      .   S
    C2982  H2994     1.08100      .   S
    C2982  C2978     1.48550      .   S
    C2958  H2970     1.08135      .   S
    C2958  C2954     1.48342      .   S
    C2979  C2978     1.40984      .   S
    C2979  C2980     1.40161      .   S
    C1446  H1458     1.08104      .   S
    C1446  C1442     1.48500      .   S
    C2689  C2690     1.40030      .   S
    C2689  C2688     1.39591      .   S
    C1513  C1514     1.40355      .   S
    C1513  C1512     1.39786      .   S
    C1326  H1338     1.08102      .   S
    C1326  C1322     1.48494      .   S
    C1926  H1938     1.08071      .   S
    C1926  C1922     1.48569      .   S
    C1443  C1442     1.40939      .   S
    C1443  C1444     1.40124      .   S
    C1638  H1650     1.08102      .   S
    C1638  C1634     1.48603      .   S
    C1635  C1634     1.40920      .   S
    C1635  C1636     1.40011      .   S
    C3054  H3066     1.08174      .   S
    C3054  C3050     1.48185      .   S
    C2955  C2954     1.40953      .   S
    C2955  C2956     1.40099      .   S
    C1323  C1322     1.40924      .   S
    C1323  C1324     1.39976      .   S
    C3051  C3050     1.40763      .   S
    C3051  C3052     1.39762      .   S
    C1923  C1922     1.40806      .   S
    C1923  C1924     1.39923      .   S
    H2006  C1992     1.08042      .   S
    H2894  C2880     1.08105      .   S
    H2993  C2980     1.08150      .   S
    C1710  H1722     1.08061      .   S
    C1710  C1706     1.48673      .   S
    H1649  C1636     1.08062      .   S
    H2702  C2688     1.07958      .   S
    C1707  C1706     1.40813      .   S
    C1707  C1708     1.40065      .   S
    C2499  C2500     1.39930      .   S
    C2499  C2498     1.40803      .   S
    C1249  C1250     1.40199      .   S
    C1249  C1248     1.39351      .   S
    H1457  C1444     1.08140      .   S
    H3065  C3052     1.08098      .   S
    C2502  H2514     1.08155      .   S
    C2502  C2498     1.48732      .   S
    C2882  C2883     1.40738      .   S
    H2777  C2764     1.08133      .   S
    H1526  C1512     1.08086      .   S
    H2513  C2500     1.08144      .   S
    C90    C36       1.40588      .   S
    C90    C18       1.40688      .   S
    H1337  C1324     1.08120      .   S
    C72    C57       1.40854      .   S
    C72    C0        1.40511      .   S
    H1937  C1924     1.08117      .   S
    C1994  C1995     1.40762      .   S
    C75    C54       1.40406      .   S
    C75    C3        1.40827      .   S
    H2969  C2956     1.08177      .   S
    H1721  C1708     1.08111      .   S
    C2763  C2764     1.40099      .   S
    C2763  C2762     1.40882      .   S
    C93    C39       1.40459      .   S
    C93    C21       1.40660      .   S
    C849   C777      1.40580      .   S
    C849   C792      1.40818      .   S
    C2571  C2572     1.39687      .   S
    C2571  C2570     1.40614      .   S
    H2585  C2572     1.08110      .   S
    C1514  C1515     1.40888      .   S
    C2574  H2586     1.08139      .   S
    C2574  C2570     1.48557      .   S
    C831   C759      1.40534      .   S
    C831   C813      1.40549      .   S
    C2978  C2977     1.40128      .   S
    C2690  C2691     1.40736      .   S
    C828   C810      1.40388      .   S
    C828   C756      1.40678      .   S
    C1992  C1997     1.40649      .   S
    C2880  C2885     1.40637      .   S
    C1250  C1251     1.41019      .   S
    C846   C774      1.40524      .   S
    C846   C795      1.40734      .   S
    H1262  C1248     1.08062      .   S
    C2766  C2762     1.48653      .   S
    C2766  H2778     1.08124      .   S
    C2954  C2953     1.40074      .   S
    C1442  C1441     1.40080      .   S
    C2980  C2981     1.40649      .   S
    C1322  C1321     1.40130      .   S
    C1922  C1921     1.40201      .   S
    C1512  C1517     1.40701      .   S
    C1634  C1633     1.40162      .   S
    C2688  C2693     1.41141      .   S
    C1444  C1445     1.40566      .   S
    C1636  C1637     1.40709      .   S
    C3050  C3049     1.40137      .   S
    C2956  C2957     1.40570      .   S
    C3052  C3053     1.40635      .   S
    C1324  C1325     1.40529      .   S
    C1924  C1925     1.40639      .   S
    C1706  C1705     1.40207      .   S
    C1708  C1709     1.40669      .   S
    C2500  C2501     1.40720      .   S
    C1248  C1253     1.40670      .   S
    C2498  C2497     1.40301      .   S
    C2764  C2765     1.40657      .   S
    C36    C37       1.40427      .   S
    C18    C19       1.40773      .   S
    C57    C58       1.40679      .   S
    C0     C1        1.40305      .   S
    C54    C55       1.40155      .   S
    C3     C4        1.40983      .   S
    C2572  C2573     1.41032      .   S
    C777   C778      1.40164      .   S
    C39    C40       1.40366      .   S
    C21    C22       1.40688      .   S
    C792   C793      1.40526      .   S
    C2570  C2569     1.40206      .   S
    C2762  C2761     1.40170      .   S
    C810   C811      1.40219      .   S
    C759   C760      1.40461      .   S
    C813   C814      1.40714      .   S
    C774   C775      1.40243      .   S
    C756   C757      1.40789      .   S
    C795   C796      1.40762      .   S
    C2883  H2896     1.08078      .   S
    C2883  C2884     1.39801      .   S
    C1995  H2008     1.08074      .   S
    C1995  C1996     1.39834      .   S
    C1251  H1264     1.08058      .   S
    C1251  C1252     1.40284      .   S
    C1515  H1528     1.08107      .   S
    C1515  C1516     1.40227      .   S
    C2885  C2884     1.40677      .   S
    C1997  C1996     1.40650      .   S
    C2977  H2991     1.08366      .   S
    C2977  C2976     1.39452      .   S
    C2953  H2967     1.08355      .   S
    C2953  C2952     1.39334      .   S
    C2691  H2704     1.08103      .   S
    C2691  C2692     1.40163      .   S
    C1441  H1455     1.08358      .   S
    C1441  C1440     1.39502      .   S
    C1517  C1516     1.40759      .   S
    C1321  H1335     1.08388      .   S
    C1321  C1320     1.39658      .   S
    C1921  H1935     1.08357      .   S
    C1921  C1920     1.39644      .   S
    C2981  C2976     1.40691      .   S
    C1633  H1647     1.08333      .   S
    C1633  C1632     1.39628      .   S
    C2957  C2952     1.40721      .   S
    C1445  C1440     1.40702      .   S
    C1253  C1252     1.40628      .   S
    C1637  C1632     1.40731      .   S
    C2693  C2692     1.41088      .   S
    C1925  C1920     1.40723      .   S
    C1325  C1320     1.40665      .   S
    C3049  H3063     1.08383      .   S
    C3049  C3048     1.39520      .   S
    C3053  C3048     1.40744      .   S
    C1705  H1719     1.08387      .   S
    C1705  C1704     1.39737      .   S
    C1709  C1704     1.40717      .   S
    C2884  H2897     1.08119      .   S
    C2501  C2496     1.40779      .   S
    C1996  H2009     1.08125      .   S
    C2497  H2511     1.08297      .   S
    C2497  C2496     1.39841      .   S
    C58    H59       1.08332      .   S
    C58    C74       1.40544      .   S
    C1     H2        1.08340      .   S
    C1     C74       1.40257      .   S
    C37    H38       1.08282      .   S
    C37    C92       1.40672      .   S
    C19    H20       1.08346      .   S
    C19    C92       1.40638      .   S
    C55    H56       1.08323      .   S
    C55    C77       1.40273      .   S
    C4     H5        1.08296      .   S
    C4     C77       1.40694      .   S
    C2765  C2760     1.40745      .   S
    C1252  H1265     1.08166      .   S
    C2573  C2568     1.41086      .   S
    C40    H41       1.08337      .   S
    C40    C95       1.40377      .   S
    C1516  H1529     1.08112      .   S
    C778   H779      1.08338      .   S
    C778   C851      1.40066      .   S
    C22    H23       1.08365      .   S
    C22    C95       1.40475      .   S
    C793   H794      1.08354      .   S
    C793   C851      1.40348      .   S
    C2569  H2583     1.08334      .   S
    C2569  C2568     1.39856      .   S
    C2976  H2990     1.08045      .   S
    C2952  H2966     1.08039      .   S
    C811   H812      1.08309      .   S
    C811   C830      1.40351      .   S
    C1440  H1454     1.08053      .   S
    C814   H815      1.08324      .   S
    C814   C833      1.40651      .   S
    C760   H761      1.08354      .   S
    C760   C833      1.40449      .   S
    C2761  C2760     1.39660      .   S
    C2761  H2775     1.08373      .   S
    C1920  H1934     1.08048      .   S
    C2692  H2705     1.08104      .   S
    C1320  H1334     1.08138      .   S
    C757   H758      1.08331      .   S
    C757   C830      1.40645      .   S
    C775   H776      1.08376      .   S
    C775   C848      1.40251      .   S
    C1632  H1646     1.08020      .   S
    C796   H797      1.08299      .   S
    C796   C848      1.40637      .   S
    C3048  H3062     1.08040      .   S
    C1704  H1718     1.08068      .   S
    C2496  H2510     1.08089      .   S
    C74    C875      1.48382      .   S
    C92    C2315     1.48834      .   S
    C77    C971      1.48467      .   S
    C95    C2219     1.48534      .   S
    C2568  H2582     1.08067      .   S
    C851   C947      1.47883      .   S
    C2760  H2774     1.08071      .   S
    C830   C2291     1.48421      .   S
    C833   C2387     1.48573      .   S
    C848   C1043     1.48334      .   S
    H885   C874      1.08287      .   S
    H981   C970      1.08340      .   S
    H2325  C2314     1.08356      .   S
    H2229  C2218     1.08272      .   S
    H957   C946      1.08325      .   S
    H2301  C2290     1.08271      .   S
    H1054  C1044     1.08293      .   S
    H2398  C2388     1.08329      .   S
    C875   C874      1.40513      .   S
    C875   C876      1.40372      .   S
    C874   C873      1.39537      .   S
    C2315  C2314     1.40527      .   S
    C2315  C2316     1.40626      .   S
    C971   C970      1.40594      .   S
    C971   C972      1.40391      .   S
    C970   C969      1.39486      .   S
    C2219  C2218     1.40509      .   S
    C2219  C2220     1.40476      .   S
    C2314  C2313     1.39635      .   S
    C2218  C2217     1.39558      .   S
    C947   C946      1.40476      .   S
    C947   C948      1.40250      .   S
    C946   C945      1.39297      .   S
    C2291  C2290     1.40538      .   S
    C2291  C2292     1.40418      .   S
    C2290  C2289     1.39532      .   S
    C2387  C2388     1.40446      .   S
    C2387  C2386     1.40524      .   S
    C1043  C1044     1.40269      .   S
    C1043  C1042     1.40462      .   S
    C1044  C1045     1.39782      .   S
    C2388  C2389     1.39906      .   S
    H2326  C2316     1.08316      .   S
    C876   H886      1.08329      .   S
    C876   C877      1.39993      .   S
    C2316  C2317     1.40129      .   S
    H884   C873      1.08312      .   S
    C873   C872      1.40301      .   S
    C972   H982      1.08268      .   S
    C972   C973      1.40108      .   S
    C2220  H2230     1.08263      .   S
    C2220  C2221     1.40051      .   S
    H980   C969      1.08312      .   S
    C969   C968      1.40259      .   S
    C2313  H2324     1.08352      .   S
    C2313  C2312     1.40347      .   S
    C2217  H2228     1.08367      .   S
    C2217  C2216     1.40254      .   S
    C948   H958      1.08322      .   S
    C948   C949      1.39769      .   S
    H956   C945      1.08338      .   S
    C945   C944      1.40218      .   S
    H2397  C2386     1.08339      .   S
    H1053  C1042     1.08282      .   S
    C2292  H2302     1.08334      .   S
    C2292  C2293     1.39970      .   S
    C2386  C2385     1.39789      .   S
    H2300  C2289     1.08392      .   S
    C2289  C2288     1.40208      .   S
    C1042  C1041     1.39745      .   S
    H1055  C1045     1.08043      .   S
    C1045  C1040     1.41021      .   S
    C2389  H2399     1.08088      .   S
    C2389  C2384     1.40951      .   S
    C877   C872      1.41003      .   S
    C877   H887      1.08041      .   S
    C872   C871      1.48374      .   S
    C2317  C2312     1.40913      .   S
    C2317  H2327     1.08104      .   S
    C2221  C2216     1.40907      .   S
    C2221  H2231     1.08095      .   S
    C2312  C2311     1.48682      .   S
    C973   C968      1.41060      .   S
    C973   H983      1.08143      .   S
    C2216  C2215     1.48424      .   S
    C968   C967      1.48619      .   S
    C949   C944      1.40968      .   S
    C949   H959      1.08073      .   S
    C944   C943      1.48068      .   S
    C2293  C2288     1.41011      .   S
    C2293  H2303     1.08106      .   S
    C1041  C1040     1.40344      .   S
    C1041  H1052     1.08367      .   S
    C2385  C2384     1.40472      .   S
    C2385  H2396     1.08344      .   S
    C2288  C2287     1.48389      .   S
    C1040  C1039     1.48645      .   S
    C2384  C2383     1.48812      .   S
    C871   H883      1.08162      .   S
    C871   C870      1.34109      .   S
    C2311  H2323     1.08196      .   S
    C2311  C2310     1.34309      .   S
    C2215  H2227     1.08216      .   S
    C2215  C2214     1.34210      .   S
    C967   H979      1.08222      .   S
    C967   C966      1.34071      .   S
    C943   H955      1.08151      .   S
    C943   C942      1.33960      .   S
    H1050  C1038     1.08133      .   S
    C2287  H2299     1.08245      .   S
    C2287  C2286     1.34060      .   S
    H2394  C2382     1.08121      .   S
    C1039  C1038     1.34038      .   S
    C1039  H1051     1.08185      .   S
    C2383  C2382     1.34251      .   S
    C2383  H2395     1.08173      .   S
    C1038  C1034     1.48336      .   S
    H882   C870      1.08137      .   S
    H2322  C2310     1.08167      .   S
    C2382  C2378     1.48674      .   S
    C870   C866      1.48481      .   S
    H2226  C2214     1.08131      .   S
    H978   C966      1.08194      .   S
    C2310  C2306     1.48689      .   S
    H954   C942      1.08122      .   S
    C2214  C2210     1.48521      .   S
    C966   C962      1.48510      .   S
    C942   C938      1.48017      .   S
    H2298  C2286     1.08232      .   S
    C2286  C2282     1.48375      .   S
    C1034  C1033     1.39898      .   S
    C1034  C1035     1.40829      .   S
    H1047  C1033     1.08379      .   S
    C866   C867      1.40806      .   S
    C866   C865      1.40243      .   S
    C2378  C2377     1.40209      .   S
    C2378  C2379     1.40971      .   S
    H880   C867      1.08138      .   S
    H2391  C2377     1.08396      .   S
    C2306  C2307     1.40716      .   S
    C2306  C2305     1.40294      .   S
    H1048  C1035     1.08113      .   S
    C2210  C2211     1.40682      .   S
    C2210  C2209     1.40231      .   S
    C938   C939      1.40757      .   S
    C938   C937      1.40020      .   S
    C962   C963      1.40811      .   S
    C962   C961      1.39901      .   S
    H2224  C2211     1.08115      .   S
    H976   C963      1.08096      .   S
    H952   C939      1.08151      .   S
    H2392  C2379     1.08028      .   S
    H2320  C2307     1.08165      .   S
    H879   C865      1.08386      .   S
    H2319  C2305     1.08355      .   S
    C2282  C2283     1.40746      .   S
    C2282  C2281     1.39970      .   S
    H2223  C2209     1.08328      .   S
    H2296  C2283     1.08121      .   S
    C1033  C1032     1.39199      .   S
    H951   C937      1.08352      .   S
    H975   C961      1.08339      .   S
    C867   C868      1.39870      .   S
    C1035  C1036     1.40298      .   S
    H2295  C2281     1.08397      .   S
    C2377  C2376     1.39537      .   S
    C865   C864      1.39618      .   S
    C2211  C2212     1.39687      .   S
    C2307  C2308     1.39825      .   S
    C2379  C2380     1.40180      .   S
    C939   C940      1.39715      .   S
    C963   C964      1.40199      .   S
    C2305  C2304     1.39942      .   S
    C2209  C2208     1.39860      .   S
    C937   C936      1.39462      .   S
    C961   C960      1.39411      .   S
    C2283  C2284     1.40024      .   S
    C2281  C2280     1.39486      .   S
    C1032  H1046     1.07944      .   S
    C1032  C1037     1.41137      .   S
    C868   H881      1.08173      .   S
    C868   C869      1.40512      .   S
    C1036  H1049     1.08144      .   S
    C1036  C1037     1.40985      .   S
    C2376  H2390     1.08060      .   S
    C2376  C2381     1.40718      .   S
    C864   H878      1.08221      .   S
    C864   C869      1.40521      .   S
    C2212  H2225     1.08097      .   S
    C2212  C2213     1.40690      .   S
    C940   H953      1.08111      .   S
    C940   C941      1.40553      .   S
    C2308  H2321     1.08094      .   S
    C2308  C2309     1.40749      .   S
    C964   H977      1.08091      .   S
    C964   C965      1.40998      .   S
    C2304  H2318     1.08071      .   S
    C2304  C2309     1.40780      .   S
    C2380  H2393     1.08124      .   S
    C2380  C2381     1.40669      .   S
    C2208  H2222     1.08064      .   S
    C2208  C2213     1.40743      .   S
    C936   H950      1.08063      .   S
    C936   C941      1.40727      .   S
    C960   H974      1.07978      .   S
    C960   C965      1.41170      .   S
    C2284  H2297     1.08117      .   S
    C2284  C2285     1.41041      .   S
    C2280  H2294     1.07936      .   S
    C2280  C2285     1.41150      .   S
