# CIF file generated by openbabel 2.4.90, see http://openbabel.sf.net
data_I
_chemical_name_common ''
_cell_length_a 14.76
_cell_length_b 14.768
_cell_length_c 14.7681
_cell_angle_alpha 119.862
_cell_angle_beta 119.897
_cell_angle_gamma 90.143
_space_group_name_H-M_alt 'P 1'
_space_group_name_Hall 'P 1'
loop_
    _symmetry_equiv_pos_as_xyz
    x,y,z
loop_
    _atom_site_label
    _atom_site_type_symbol
    _atom_site_fract_x
    _atom_site_fract_y
    _atom_site_fract_z
    _atom_site_occupancy
    H0      H    0.00914   0.17003   0.35988   1.000
    Zr1     Zr   0.70288   0.81056   0.38102   1.000
    H2      H    0.90735   0.83093   0.45317   1.000
    H3      H    0.16317   0.63409   0.70597   1.000
    H4      H    0.13211   0.40869   0.99191   1.000
    H5      H    0.83259   0.37884   0.26540   1.000
    H6      H    0.13256   0.27620   0.72441   1.000
    H7      H    0.18762   0.21644   0.81151   1.000
    H8      H    0.05952   0.23642   0.77227   1.000
    H9      H    0.77169   0.48473   0.00935   1.000
    H10     H    0.85118   0.42458   0.08822   1.000
    H11     H    0.72059   0.47285   0.30481   1.000
    H12     H    0.75764   0.56147   0.46377   1.000
    H13     H    0.78605   0.61874   0.39772   1.000
    H14     H    0.22701   0.52836   0.99225   1.000
    H15     H    0.23004   0.66843   0.07325   1.000
    H16     H    0.14633   0.58233   0.90562   1.000
    H17     H    0.85997   0.59799   0.99680   1.000
    H18     H    0.95236   0.27167   0.33209   1.000
    H19     H    0.97505   0.91430   0.36281   1.000
    H20     H    0.05434   0.73913   0.16637   1.000
    H21     H    0.06121   0.02970   0.69812   1.000
    H22     H    0.94355   0.91201   0.52393   1.000
    H23     H    0.16542   0.13401   0.64593   1.000
    C24     C    0.78379   0.54616   0.40109   1.000
    C25     C    0.17681   0.58291   0.99068   1.000
    C26     C    0.99426   0.00382   0.68567   1.000
    C27     C    0.99095   0.30867   0.99681   1.000
    C28     C    0.99973   0.30677   0.29574   1.000
    C29     C    0.00034   0.98959   0.29022   1.000
    C30     C    0.99924   0.00407   0.58729   1.000
    C31     C    0.99027   0.40998   0.99724   1.000
    C32     C    0.00385   0.41159   0.39699   1.000
    C33     C    0.00280   0.59768   0.99340   1.000
    C34     C    0.99973   0.98781   0.39016   1.000
    C35     C    0.99163   0.60065   0.57470   1.000
    C36     C    0.94740   0.90298   0.46698   1.000
    C37     C    0.07301   0.45203   0.99366   1.000
    C38     C    0.90493   0.43636   0.36312   1.000
    C39     C    0.91980   0.55537   0.99649   1.000
    C40     C    0.05247   0.08870   0.51088   1.000
    C41     C    0.89503   0.52940   0.44832   1.000
    C42     C    0.09089   0.57658   0.60819   1.000
    C43     C    0.08299   0.54542   0.99245   1.000
    C44     C    0.94596   0.89121   0.36630   1.000
    C45     C    0.05409   0.10050   0.61168   1.000
    C46     C    0.10084   0.48373   0.52279   1.000
    C47     C    0.91067   0.46281   0.99938   1.000
    C48     C    0.81871   0.42710   0.00478   1.000
    C49     C    0.11131   0.21360   0.73648   1.000
    C50     C    0.99707   0.11114   0.29427   1.000
    C51     C    0.03690   0.44696   0.62813   1.000
    C52     C    0.90395   0.05042   0.51721   1.000
    C53     C    0.04069   0.44033   0.22695   1.000
    C54     C    0.82760   0.45914   0.40480   1.000
    C55     C    0.05375   0.33636   0.44424   1.000
    C56     C    0.06016   0.28752   0.51520   1.000
    C57     C    0.57768   0.66286   0.35998   1.000
    C58     C    0.09418   0.40390   0.08531   1.000
    C59     C    0.98618   0.35272   0.48385   1.000
    C60     C    0.06841   0.46252   0.73421   1.000
    C61     C    0.09136   0.41910   0.61102   1.000
    C62     C    0.07895   0.30030   0.93710   1.000
    C63     C    0.93171   0.37003   0.06350   1.000
    C64     C    0.06160   0.67185   0.06915   1.000
    C65     C    0.83903   0.81694   0.09740   1.000
    C66     C    0.76527   0.88639   0.43547   1.000
    O67     O    0.06910   0.08104   0.80290   1.000
    O68     O    0.07406   0.26390   0.33125   1.000
    O69     O    0.92273   0.91436   0.17331   1.000
    O70     O    0.07636   0.06844   0.32826   1.000
    O71     O    0.91559   0.92684   0.64643   1.000
    O72     O    0.91956   0.26530   0.17953   1.000
    O73     O    0.06809   0.26948   0.99539   1.000
    O74     O    0.85444   0.84910   0.41320   1.000
    O75     O    0.00371   0.39229   0.50897   1.000
    O76     O    0.02784   0.23610   0.72436   1.000
    O77     O    0.78217   0.64116   0.45105   1.000
    O78     O    0.99116   0.39555   0.16655   1.000
    O79     O    0.01227   0.22404   0.02653   1.000
    O80     O    0.92760   0.38355   0.24967   1.000
    O81     O    0.77836   0.65045   0.26247   1.000
    O82     O    0.10211   0.53783   0.66121   1.000
    O83     O    0.91532   0.38890   0.89751   1.000
loop_
    _geom_bond_atom_site_label_1
    _geom_bond_atom_site_label_2
    _geom_bond_distance
    _geom_bond_site_symmetry_2
    _ccdc_geom_bond_type
    C48    H9        1.09681      .   S
    C48    C63       1.88080      .   S
    C48    H10       1.09843      .   S
    C48    C47       1.50766  1_554   S
    C63    O78       1.15056      .   S
    C64    H20       1.33916      .   S
    C64    C33       1.00582  1_554   S
    H15    C25       1.09802  1_554   S
    C58    C37       1.72393  1_554   S
    C58    C27       1.47700  1_454   S
    C58    C31       1.47659  1_454   S
    C65    O69       1.36281      .   S
    O78    C53       0.72634  1_655   S
    O69    C29       1.28036  1_655   S
    O72    C28       1.28292      .   S
    O81    Zr1       2.78077      .   S
    H5     C38       1.08761      .   S
    C29    C50       1.76764  1_465   S
    C29    O70       1.28227  1_565   S
    C29    C34       1.49365  1_455   S
    C50    O70       1.32388  1_655   S
    C50    H0        0.84556  1_655   S
    C28    O68       1.28063  1_655   S
    C28    H18       1.30194      .   S
    C28    C32       1.49656  1_655   S
    H11    C24       1.09717      .   S
    C57    Zr1       2.64604      .   S
    H19    C44       0.58486      .   S
    C38    C32       1.40450  1_655   S
    C38    C41       1.39825      .   S
    C44    C36       1.39732      .   S
    Zr1    C66       1.05283      .   S
    C34    C40       1.40351  1_665   S
    C32    C46       1.41633      .   S
    H13    O77       0.72014      .   S
    C24    C54       1.45311      .   S
    C24    O77       1.22489      .   S
    C24    H12       1.09779      .   S
    C54    C41       1.08312      .   S
    O74    H2        0.85414      .   S
    O74    C36       1.19388      .   S
    C55    C59       1.35551  1_455   S
    C41    C35       1.41688      .   S
    C36    H22       0.81511      .   S
    C36    C30       1.40309  1_565   S
    C59    O75       0.48344  1_655   S
    C59    C56       1.50973  1_655   S
    O75    C61       1.24957      .   S
    C40    C45       1.39753      .   S
    C52    C30       1.66645      .   S
    C46    C42       1.39854      .   S
    C35    C42       1.40455  1_655   S
    C30    C45       1.41630  1_655   S
    C30    C26       1.49268      .   S
    C42    O82       1.13379      .   S
    C42    H3        1.08771      .   S
    C61    C51       0.98981      .   S
    C45    H23       1.45568      .   S
    C45    C49       1.50852      .   S
    C51    O82       1.35567      .   S
    C51    C60       1.27991      .   S
    O71    C26       1.28184  1_565   S
    C26    H21       0.95040  1_655   S
    C26    O67       1.28030  1_655   S
    O76    C49       1.22553      .   S
    O76    H8        0.62140      .   S
    H6     C49       1.09690      .   S
    C49    H7        1.09886      .   S
    O83    C31       1.18634      .   S
    O83    C47       1.38841      .   S
    H16    C25       1.09833      .   S
    C62    O73       1.22529      .   S
    C25    H14       1.09681      .   S
    C25    C43       1.50715      .   S
    H4     C37       1.08630      .   S
    C43    C33       1.41672      .   S
    C43    C37       1.39654      .   S
    C33    C39       1.40486  1_455   S
    C37    C31       1.40468  1_455   S
    O73    C27       1.28327  1_455   S
    C39    H17       1.08626      .   S
    C39    C47       1.39692      .   S
    C31    C47       1.41673      .   S
    O67    H21       1.27843      .   S
    O68    C55       1.65570      .   S
    O72    O80       1.48724      .   S
    O73    C58       1.64736  1_556   S
    O73    O79       1.42219  1_556   S
    O74    Zr1       2.05390      .   S
    O74    H22       1.26650      .   S
    O74    C66       1.54868      .   S
    O79    C27       1.50469  1_454   S
