# CIF file generated by openbabel 2.4.90, see http://openbabel.sf.net
data_I
_chemical_name_common ''
_cell_length_a 14.76
_cell_length_b 14.768
_cell_length_c 14.7681
_cell_angle_alpha 119.862
_cell_angle_beta 119.897
_cell_angle_gamma 90.143
_space_group_name_H-M_alt 'P 1'
_space_group_name_Hall 'P 1'
loop_
    _symmetry_equiv_pos_as_xyz
    x,y,z
loop_
    _atom_site_label
    _atom_site_type_symbol
    _atom_site_fract_x
    _atom_site_fract_y
    _atom_site_fract_z
    _atom_site_occupancy
    Zr0     Zr   0.10953   0.12167   0.98732   1.000
    Zr1     Zr   0.87102   0.88213   0.74782   1.000
    Zr2     Zr   0.87258   0.11833   0.99071   1.000
    Zr3     Zr   0.11437   0.11753   0.22665   1.000
    Zr4     Zr   0.11279   0.88109   0.98312   1.000
    Zr5     Zr   0.87625   0.87842   0.98790   1.000
    Zr6     Zr   0.53260   0.02049   0.75924   1.000
    Zr7     Zr   0.99758   0.96010   0.94932   1.000
    Zr8     Zr   0.97039   0.89608   0.72029   1.000
    Zr9     Zr   0.96078   0.90042   0.97431   1.000
    H10     H    0.89454   0.09613   0.80162   1.000
    H11     H    0.27503   0.09536   0.17283   1.000
    H12     H    0.90032   0.71810   0.79734   1.000
    H13     H    0.80257   0.02387   0.82193   1.000
    H14     H    0.02070   0.86428   0.08660   1.000
    H15     H    0.71961   0.98271   0.84851   1.000
    H16     H    0.85171   0.84583   0.82281   1.000
    H17     H    0.97406   0.97124   0.89668   1.000
    C18     C    0.68081   0.99614   0.68670   1.000
    C19     C    0.29161   0.00063   0.97646   1.000
    C20     C    0.00050   0.69733   0.99050   1.000
    C21     C    0.99341   0.70173   0.67748   1.000
    C22     C    0.51363   0.09953   0.73178   1.000
    C23     C    0.94263   0.80205   0.91691   1.000
    C24     C    0.09501   0.90029   0.91361   1.000
    C25     C    0.85000   0.24341   0.07419   1.000
    C26     C    0.26277   0.11815   0.39174   1.000
    C27     C    0.51821   0.01889   0.78727   1.000
    C28     C    0.13046   0.80357   0.03770   1.000
    O29     O    0.04201   0.14912   0.08852   1.000
    O30     O    0.04068   0.95225   0.88625   1.000
    O31     O    0.04480   0.94908   0.08540   1.000
    O32     O    0.72229   0.92098   0.64840   1.000
    O33     O    0.91437   0.26630   0.99563   1.000
    O34     O    0.25370   0.92284   0.97724   1.000
    O35     O    0.07447   0.73712   0.98657   1.000
    O36     O    0.25833   0.07231   0.32612   1.000
    O37     O    0.07146   0.74005   0.79345   1.000
    O38     O    0.25282   0.26804   0.17246   1.000
    O39     O    0.91659   0.74259   0.64339   1.000
    O40     O    0.92252   0.73569   0.99027   1.000
    O41     O    0.72244   0.07324   0.80361   1.000
    O42     O    0.25082   0.07719   0.97810   1.000
    O43     O    0.92247   0.06868   0.85451   1.000
    O44     O    0.19469   0.06794   0.11983   1.000
    O45     O    0.92636   0.79837   0.85078   1.000
    O46     O    0.84360   0.94945   0.88927   1.000
    O47     O    0.21332   0.16325   0.33043   1.000
    O48     O    0.30464   0.28626   0.15184   1.000
    O49     O    0.11286   0.71365   0.08487   1.000
    O50     O    0.81996   0.20583   0.93904   1.000
    Ts51    Ts   0.09605   0.10813   0.92585   1.000
    Ts52    Ts   0.09572   0.17094   0.99001   1.000
    Ts53    Ts   0.14636   0.17859   0.03706   1.000
    Ts54    Ts   0.07711   0.15579   0.00039   1.000
    Ts55    Ts   0.88588   0.89703   0.71402   1.000
    Ts56    Ts   0.82212   0.83365   0.71405   1.000
    Ts57    Ts   0.82412   0.10282   0.98938   1.000
    Ts58    Ts   0.88824   0.16732   0.05365   1.000
    Ts59    Ts   0.89092   0.10032   0.03510   1.000
    Ts60    Ts   0.91914   0.15357   0.00265   1.000
    Ts61    Ts   0.10093   0.16632   0.26152   1.000
    Ts62    Ts   0.16121   0.16766   0.26026   1.000
    Ts63    Ts   0.10170   0.10117   0.26052   1.000
    Ts64    Ts   0.05211   0.09979   0.19239   1.000
    Ts65    Ts   0.16034   0.89369   0.04514   1.000
    Ts66    Ts   0.89174   0.89040   0.04970   1.000
    Ts67    Ts   0.82711   0.83130   0.92626   1.000
    Ts68    Ts   0.82684   0.89118   0.98671   1.000
    Ts69    Ts   0.89337   0.94038   0.03323   1.000
    Ts70    Ts   0.59747   0.03760   0.83507   1.000
    Ts71    Ts   0.00329   0.95773   0.74783   1.000
    Ts72    Ts   0.95212   0.90633   0.69567   1.000
    Ts73    Ts   0.94972   0.95505   0.02416   1.000
    Og74    Og   0.69662   0.98795   0.68716   1.000
    Og75    Og   0.32519   0.00094   0.97620   1.000
    Og76    Og   0.02087   0.68884   0.01672   1.000
    Og77    Og   0.99282   0.66804   0.64322   1.000
    Ts78    Ts   0.48781   0.10427   0.72709   1.000
    Ts79    Ts   0.53621   0.12619   0.75646   1.000
    Ts80    Ts   0.51011   0.08127   0.69043   1.000
    Ts81    Ts   0.87319   0.25070   0.10930   1.000
    Og82    Og   0.25299   0.09580   0.37363   1.000
    Ts83    Ts   0.17212   0.84201   0.08152   1.000
    Ts84    Ts   0.03210   0.17409   0.06786   1.000
    Ts85    Ts   0.72428   0.93784   0.66163   1.000
    Ts86    Ts   0.93990   0.28042   0.99602   1.000
    Ts87    Ts   0.92015   0.30088   0.01825   1.000
    Ts88    Ts   0.94700   0.25221   0.00593   1.000
    Ts89    Ts   0.27086   0.04611   0.31291   1.000
    Ts90    Ts   0.25003   0.06524   0.32988   1.000
    Ts91    Ts   0.23103   0.25957   0.13222   1.000
    Ts92    Ts   0.26584   0.28187   0.21142   1.000
    Ts93    Ts   0.24189   0.27617   0.16049   1.000
    Ts94    Ts   0.89301   0.71048   0.63510   1.000
    Ts95    Ts   0.72438   0.03935   0.76510   1.000
    Ts96    Ts   0.20820   0.17108   0.34257   1.000
    Ts97    Ts   0.22002   0.12586   0.33276   1.000
    Ts98    Ts   0.22718   0.19814   0.32945   1.000
    Ts99    Ts   0.27644   0.28832   0.14674   1.000
    Ts100   Ts   0.09578   0.69972   0.07963   1.000
loop_
    _geom_bond_atom_site_label_1
    _geom_bond_atom_site_label_2
    _geom_bond_distance
    _geom_bond_site_symmetry_2
    _ccdc_geom_bond_type
    C28    O49       1.84817      .   S
    C28    Zr4       1.65508  1_554   S
    C28    O35       0.92309  1_554   S
    C25    O50       1.58160  1_554   S
    C25    Zr2       1.78544  1_554   S
    O31    H14       1.31196      .   S
    O31    Zr9       1.24065  1_454   S
    O29    Zr0       2.06752  1_554   S
    O44    H11       0.96927      .   S
    O48    O38       1.03098      .   S
    Zr3    O47       1.29271      .   S
    O39    C21       1.28066      .   S
    C21    O37       1.28269  1_655   S
    C18    O41       1.27914  1_565   S
    Zr8    Zr1       1.74210      .   S
    C22    Zr6       1.40177      .   S
    Zr6    C27       0.56084      .   S
    H12    O45       0.96928      .   S
    H10    O43       0.96929      .   S
    O41    H13       1.37308      .   S
    H15    Zr2       2.14046  1_565   S
    O45    C23       0.85303      .   S
    O30    C24       1.17645      .   S
    O30    Zr7       1.33005  1_455   S
    O46    Zr2       2.06944  1_565   S
    H17    Zr7       0.78129      .   S
    C24    Zr4       1.10671      .   S
    C23    Zr9       1.20250      .   S
    O50    O33       1.23588      .   S
    Zr7    Zr9       1.31504      .   S
    Zr9    Zr5       1.41957      .   S
    C19    O34       1.28428  1_545   S
    C19    O42       1.27753      .   S
    O35    C20       1.27852      .   S
    O40    C20       1.28334  1_655   S
    O29    Zr2       2.07036  1_454   S
    O29    Zr3       2.07312      .   S
    O29    Zr7       2.31969  1_444   S
    O30    Zr0       2.06806  1_565   S
    O30    Zr1       2.07317  1_455   S
    O30    Zr4       2.06605      .   S
    O30    Zr8       1.79095  1_455   S
    O30    Zr9       2.48663  1_455   S
    O30    H17       1.08568  1_455   S
    O31    Zr3       2.06848  1_565   S
    O31    Zr4       2.07427  1_554   S
    O31    Zr5       2.06667  1_454   S
    O31    Zr7       1.86573  1_454   S
    O32    Zr1       2.22173      .   S
    O32    C18       1.28460      .   S
    O33    Zr2       2.22518      .   S
    O34    Zr4       2.22269      .   S
    O35    Zr4       2.23016      .   S
    O35    O49       1.49351  1_556   S
    O36    Zr3       2.23410      .   S
    O36    C26       0.82760      .   S
    O36    O47       1.48679      .   S
    O37    Zr4       2.24428      .   S
    O38    Zr0       2.22447  1_554   S
    O39    Zr1       2.22568      .   S
    O39    Zr8       1.89385      .   S
    O40    Zr5       2.22877      .   S
    O40    Zr9       2.64377      .   S
    O41    Zr2       2.24619      .   S
    O41    Zr6       2.55692      .   S
    O41    O50       1.76703      .   S
    O42    Zr0       2.23605      .   S
    O43    Zr0       2.26821  1_655   S
    O43    Zr1       2.26346  1_545   S
    O43    Zr2       2.26632      .   S
    O43    Zr7       2.54128  1_545   S
    O43    Zr8       2.70214  1_545   S
    O44    Zr0       2.26677  1_554   S
    O44    Zr3       2.26906      .   S
    O44    Zr4       2.27031  1_544   S
    O44    Zr7       2.45388  1_444   S
    O45    Zr1       2.26918      .   S
    O45    Zr4       2.26460  1_655   S
    O45    Zr5       2.27128      .   S
    O45    Zr7       1.98203      .   S
    O45    Zr9       1.48044      .   S
    O45    H16       1.30931      .   S
    O46    Zr1       2.07185      .   S
    O46    Zr5       2.06845      .   S
    O46    Zr7       1.95623      .   S
    O46    Zr9       1.95945      .   S
    O46    H16       1.39348      .   S
    O47    C26       1.31921      .   S
    O48    Zr0       2.68580  1_554   S
    O50    Zr2       1.80315      .   S
    Zr0    Ts51      0.73669      .   S
    Zr0    Ts52      0.74338      .   S
    Zr0    Ts53      0.72561  1_556   S
    Zr0    Ts54      0.71874  1_556   S
    Zr1    Ts55      0.75093      .   S
    Zr1    Ts56      0.75188      .   S
    Zr2    Ts57      0.73833      .   S
    Zr2    Ts58      0.74575  1_556   S
    Zr2    Ts59      0.75555  1_556   S
    Zr2    Ts60      0.74854  1_556   S
    Zr3    Ts61      0.74612      .   S
    Zr3    Ts62      0.74958      .   S
    Zr3    Ts63      0.74629      .   S
    Zr3    Ts64      0.75654      .   S
    Zr4    Ts65      0.74491  1_556   S
    Zr5    Ts66      0.73998  1_556   S
    Zr5    Ts67      0.73988      .   S
    Zr5    Ts68      0.74757      .   S
    Zr5    Ts69      0.75465  1_556   S
    Zr6    Ts70      0.93956      .   S
    Zr8    Ts71      0.81393  1_655   S
    Zr8    Ts72      0.43028      .   S
    Zr9    Ts73      0.86521  1_556   S
    C18    Og74      0.26176      .   S
    C19    Og75      0.49752      .   S
    C20    Og76      0.43417  1_556   S
    C21    Og77      0.49851      .   S
    C22    Ts78      0.36556      .   S
    C22    Ts79      0.36639      .   S
    C22    Ts80      0.50266      .   S
    C25    Ts81      0.40608      .   S
    C26    Og82      0.27331      .   S
    C28    Ts83      0.59571      .   S
    O29    Ts84      0.56427      .   S
    O32    Ts85      0.21645      .   S
    O33    Ts86      0.42628      .   S
    O33    Ts87      0.42557  1_556   S
    O33    Ts88      0.50735  1_556   S
    O36    Ts89      0.42792      .   S
    O36    Ts90      0.20370      .   S
    O38    Ts91      0.45542      .   S
    O38    Ts92      0.42686      .   S
    O38    Ts93      0.25403      .   S
    O39    Ts94      0.50984      .   S
    O41    Ts95      0.55455      .   S
    O47    Ts96      0.20996      .   S
    O47    Ts97      0.57581      .   S
    O47    Ts98      0.56342      .   S
    O48    Ts99      0.38855      .   S
    O49    Ts100     0.27636      .   S
