# CIF file generated by openbabel 2.4.90, see http://openbabel.sf.net
data_I
_chemical_name_common ''
_cell_length_a 11.6884
_cell_length_b 5.5643
_cell_length_c 22.8159
_cell_angle_alpha 90
_cell_angle_beta 100.691
_cell_angle_gamma 90
_space_group_name_H-M_alt 'P 1'
_space_group_name_Hall 'P 1'
loop_
    _symmetry_equiv_pos_as_xyz
    x,y,z
loop_
    _atom_site_label
    _atom_site_type_symbol
    _atom_site_fract_x
    _atom_site_fract_y
    _atom_site_fract_z
    _atom_site_occupancy
    O0      O    0.23970   0.91505   0.69092   1.000
    O1      O    0.23621   0.52343   0.67212   1.000
    O2      O    0.54211   0.91879   0.24461   1.000
    O3      O    0.51296   0.52383   0.25348   1.000
    C4      C    0.22619   0.73840   0.65525   1.000
    C5      C    0.49352   0.74100   0.26289   1.000
    O6      O    0.26030   0.41505   0.80908   1.000
    O7      O    0.26379   0.02343   0.82788   1.000
    O8      O    0.95789   0.41879   0.25539   1.000
    O9      O    0.98704   0.02383   0.24652   1.000
    C10     C    0.27381   0.23840   0.84475   1.000
    C11     C    0.00648   0.24100   0.23711   1.000
    O12     O    0.76030   0.08495   0.30908   1.000
    O13     O    0.76379   0.47657   0.32788   1.000
    O14     O    0.45789   0.08121   0.75539   1.000
    O15     O    0.48704   0.47617   0.74652   1.000
    C16     C    0.77381   0.26160   0.34475   1.000
    C17     C    0.50648   0.25900   0.73711   1.000
    O18     O    0.73970   0.58495   0.19092   1.000
    O19     O    0.73621   0.97657   0.17212   1.000
    O20     O    0.04211   0.58121   0.74461   1.000
    O21     O    0.01296   0.97617   0.75348   1.000
    C22     C    0.72619   0.76160   0.15525   1.000
    C23     C    0.99352   0.75900   0.76289   1.000
loop_
    _geom_bond_atom_site_label_1
    _geom_bond_atom_site_label_2
    _geom_bond_distance
    _geom_bond_site_symmetry_2
    _ccdc_geom_bond_type
    C22    O19       1.25536      .   S
    C22    O18       1.26718      .   S
    C11    O9        1.25541  1_455   S
    C11    O8        1.25022  1_455   S
    O2     C5        1.25022      .   S
    O3     C5        1.25541      .   S
    O12    C16       1.26718      .   S
    O13    C16       1.25536      .   S
    C4     O1        1.25536      .   S
    C4     O0        1.26718      .   S
    C17    O15       1.25541      .   S
    C17    O14       1.25022      .   S
    O20    C23       1.25022  1_455   S
    O21    C23       1.25541  1_455   S
    O6     C10       1.26718      .   S
    O7     C10       1.25536      .   S
