# CIF file generated by openbabel 2.4.90, see http://openbabel.sf.net
data_I
_chemical_name_common ''
_cell_length_a 14.76
_cell_length_b 14.768
_cell_length_c 14.7681
_cell_angle_alpha 119.862
_cell_angle_beta 119.897
_cell_angle_gamma 90.143
_space_group_name_H-M_alt 'P 1'
_space_group_name_Hall 'P 1'
loop_
    _symmetry_equiv_pos_as_xyz
    x,y,z
loop_
    _atom_site_label
    _atom_site_type_symbol
    _atom_site_fract_x
    _atom_site_fract_y
    _atom_site_fract_z
    _atom_site_occupancy
    C0      C    0.68081   0.99614   0.68670   1.000
    C1      C    0.29161   0.00063   0.97646   1.000
    C2      C    0.00050   0.69733   0.99050   1.000
    C3      C    0.99341   0.70173   0.67748   1.000
    C4      C    0.26277   0.11815   0.39174   1.000
