# CIF file generated by openbabel 2.4.90, see http://openbabel.sf.net
data_I
_chemical_name_common ''
_cell_length_a 14.76
_cell_length_b 14.768
_cell_length_c 14.7681
_cell_angle_alpha 119.862
_cell_angle_beta 119.897
_cell_angle_gamma 90.143
_space_group_name_H-M_alt 'P 1'
_space_group_name_Hall 'P 1'
loop_
    _symmetry_equiv_pos_as_xyz
    x,y,z
loop_
    _atom_site_label
    _atom_site_type_symbol
    _atom_site_fract_x
    _atom_site_fract_y
    _atom_site_fract_z
    _atom_site_occupancy
    N0      N    0.01664   0.47079   0.02526   1.000
    N1      N    0.95988   0.44731   0.45496   1.000
    N2      N    0.00564   0.03543   0.51833   1.000
    Zr3     Zr   0.97962   0.97286   0.94814   1.000
    O4      O    0.97791   0.76105   0.74433   1.000
    O5      O    0.99058   0.99396   0.14841   1.000
    O6      O    0.98781   0.98940   0.79348   1.000
    O7      O    0.00876   0.77629   0.99374   1.000
    O8      O    0.96548   0.15005   0.12381   1.000
    O9      O    0.99152   0.16107   0.98390   1.000
loop_
    _geom_bond_atom_site_label_1
    _geom_bond_atom_site_label_2
    _geom_bond_distance
    _geom_bond_site_symmetry_2
    _ccdc_geom_bond_type
    Zr3    O4        3.06471      .   S
    N1     O4        4.35248      .   S
    N2     O5        5.07204  1_445   S
    Zr3    O5        2.73418  1_556   S
    Zr3    O6        2.47427      .   S
    N2     O6        4.56711  1_445   S
    Zr3    O7        3.27550  1_655   S
    N0     O7        4.75657  1_554   S
    N1     O8        4.71378      .   S
    Zr3    O8        2.72100  1_566   S
    Zr3    O9        2.54539  1_565   S
    N0     O9        4.29133  1_454   S
