# CIF file generated by openbabel 2.4.90, see http://openbabel.sf.net
data_I
_chemical_name_common ''
_cell_length_a 71.5169
_cell_length_b 71.4927
_cell_length_c 71.6087
_cell_angle_alpha 89.8315
_cell_angle_beta 90.1248
_cell_angle_gamma 89.8689
_space_group_name_H-M_alt 'P 1'
_space_group_name_Hall 'P 1'
loop_
    _symmetry_equiv_pos_as_xyz
    x,y,z
loop_
    _atom_site_label
    _atom_site_type_symbol
    _atom_site_fract_x
    _atom_site_fract_y
    _atom_site_fract_z
    _atom_site_occupancy
    N0      N    0.91167   0.58622   0.68819   1.000
    N1      N    0.31280   0.58939   0.08818   1.000
    N2      N    0.58704   0.08853   0.69024   1.000
    N3      N    0.81126   0.08880   0.91027   1.000
    N4      N    0.08993   0.41278   0.68899   1.000
    N5      N    0.58779   0.41045   0.81105   1.000
    N6      N    0.91375   0.08938   0.80857   1.000
    N7      N    0.41313   0.41203   0.81209   1.000
    N8      N    0.41100   0.58584   0.81066   1.000
    N9      N    0.41166   0.31343   0.91284   1.000
    N10     N    0.91274   0.41140   0.68830   1.000
    N11     N    0.91182   0.91159   0.80959   1.000
    N12     N    0.41084   0.08766   0.69053   1.000
    N13     N    0.58715   0.91200   0.68985   1.000
    N14     N    0.41168   0.91165   0.68983   1.000
    N15     N    0.58938   0.58923   0.81090   1.000
    N16     N    0.08765   0.18795   0.08756   1.000
    N17     N    0.91111   0.81008   0.08775   1.000
    N18     N    0.58742   0.68875   0.91061   1.000
    N19     N    0.31116   0.41288   0.08929   1.000
    N20     N    0.58638   0.31045   0.09075   1.000
    N21     N    0.08730   0.08867   0.81036   1.000
    N22     N    0.91200   0.18948   0.90980   1.000
    N23     N    0.08878   0.58706   0.68868   1.000
    N24     N    0.18908   0.08773   0.91224   1.000
    N25     N    0.41431   0.68994   0.09132   1.000
    N26     N    0.41118   0.31300   0.08809   1.000
    N27     N    0.08907   0.91129   0.81067   1.000
    N28     N    0.68820   0.41195   0.91236   1.000
    N29     N    0.08834   0.18838   0.90945   1.000
    N30     N    0.58640   0.31064   0.91310   1.000
    N31     N    0.08834   0.80912   0.91259   1.000
    N32     N    0.31137   0.41142   0.91478   1.000
    N33     N    0.81134   0.91168   0.91057   1.000
    N34     N    0.41310   0.68966   0.91177   1.000
    N35     N    0.68994   0.58697   0.91275   1.000
    N36     N    0.91172   0.81007   0.90999   1.000
    N37     N    0.31285   0.58821   0.91217   1.000
    N38     N    0.18763   0.91164   0.91285   1.000
    N39     N    0.81126   0.08899   0.08578   1.000
    N40     N    0.91206   0.18908   0.08845   1.000
    N41     N    0.81057   0.91274   0.08701   1.000
    N42     N    0.18751   0.08677   0.08855   1.000
    N43     N    0.69098   0.58724   0.08807   1.000
    N44     N    0.58917   0.68994   0.08922   1.000
    N45     N    0.18799   0.90940   0.08678   1.000
    N46     N    0.69003   0.41120   0.08805   1.000
    N47     N    0.08750   0.80931   0.08939   1.000
    N48     N    0.68847   0.08819   0.41114   1.000
    N49     N    0.41183   0.18817   0.41172   1.000
    N50     N    0.31042   0.08567   0.59030   1.000
    N51     N    0.08977   0.68928   0.41405   1.000
    N52     N    0.31098   0.91242   0.40960   1.000
    N53     N    0.58841   0.08782   0.31158   1.000
    N54     N    0.30974   0.08706   0.40964   1.000
    N55     N    0.58917   0.91427   0.31223   1.000
    N56     N    0.08914   0.41227   0.31140   1.000
    N57     N    0.91249   0.41251   0.31226   1.000
    N58     N    0.18849   0.58925   0.41273   1.000
    N59     N    0.41071   0.91308   0.31082   1.000
    N60     N    0.91198   0.58634   0.31193   1.000
    N61     N    0.41105   0.08896   0.30997   1.000
    N62     N    0.08710   0.58915   0.31127   1.000
    N63     N    0.81045   0.41081   0.41247   1.000
    N64     N    0.41290   0.81084   0.41162   1.000
    N65     N    0.81104   0.58820   0.41100   1.000
    N66     N    0.19007   0.41175   0.41052   1.000
    N67     N    0.58594   0.18824   0.41119   1.000
    N68     N    0.58871   0.81207   0.41312   1.000
    N69     N    0.68833   0.91413   0.41201   1.000
    N70     N    0.91048   0.68998   0.41269   1.000
    N71     N    0.91086   0.31160   0.41219   1.000
    N72     N    0.08870   0.31016   0.41185   1.000
    N73     N    0.41045   0.18827   0.58816   1.000
    N74     N    0.58939   0.81026   0.58604   1.000
    N75     N    0.68817   0.91229   0.58788   1.000
    N76     N    0.58880   0.41231   0.19065   1.000
    N77     N    0.41090   0.41371   0.18932   1.000
    N78     N    0.41274   0.58975   0.18989   1.000
    N79     N    0.08493   0.90858   0.18832   1.000
    N80     N    0.58852   0.58861   0.18884   1.000
    N81     N    0.91011   0.91262   0.18829   1.000
    N82     N    0.08628   0.08900   0.18686   1.000
    N83     N    0.91259   0.09031   0.18767   1.000
    N84     N    0.41343   0.81101   0.58973   1.000
    N85     N    0.58683   0.18780   0.58832   1.000
    N86     N    0.31176   0.91090   0.58681   1.000
    N87     N    0.68863   0.08918   0.58771   1.000
    N88     N    0.81170   0.58599   0.58934   1.000
    N89     N    0.19068   0.41213   0.58899   1.000
    N90     N    0.09125   0.31121   0.58655   1.000
    N91     N    0.91247   0.68778   0.58930   1.000
    N92     N    0.91156   0.31150   0.58649   1.000
    N93     N    0.08830   0.68816   0.58906   1.000
    N94     N    0.19030   0.58923   0.58654   1.000
    N95     N    0.81067   0.41150   0.58808   1.000
    Zr96    Zr   0.09102   0.99789   0.90863   1.000
    O97     O    0.08476   0.02877   0.87844   1.000
    O98     O    0.08510   0.96811   0.87863   1.000
    O99     O    0.12111   0.02846   0.91493   1.000
    O100    O    0.12038   0.96821   0.91548   1.000
    Zr101   Zr   0.59192   0.49903   0.90938   1.000
    O102    O    0.62183   0.52924   0.91563   1.000
    O103    O    0.58545   0.46872   0.87937   1.000
    O104    O    0.62127   0.46910   0.91580   1.000
    O105    O    0.58599   0.52970   0.87908   1.000
    Zr106   Zr   0.33509   0.16658   0.83658   1.000
    O107    O    0.36211   0.13897   0.78447   1.000
    O108    O    0.28299   0.13924   0.86363   1.000
    O109    O    0.36240   0.21910   0.86294   1.000
    Zr110   Zr   0.66426   0.83478   0.83545   1.000
    O111    O    0.71636   0.86179   0.86278   1.000
    O112    O    0.63638   0.78299   0.86164   1.000
    O113    O    0.63656   0.86206   0.78386   1.000
    Zr114   Zr   0.99970   0.90695   0.90853   1.000
    O115    O    0.03024   0.91344   0.87863   1.000
    O116    O    0.96947   0.87734   0.91425   1.000
    O117    O    0.96974   0.91371   0.87822   1.000
    O118    O    0.02982   0.87691   0.91518   1.000
    Zr119   Zr   0.49968   0.40933   0.90938   1.000
    O120    O    0.47001   0.41563   0.87954   1.000
    O121    O    0.52935   0.37906   0.91587   1.000
    O122    O    0.53002   0.41478   0.87927   1.000
    O123    O    0.46944   0.38018   0.91589   1.000
    Zr124   Zr   0.16619   0.66409   0.83466   1.000
    O125    O    0.13912   0.63692   0.78243   1.000
    O126    O    0.13919   0.71593   0.86236   1.000
    O127    O    0.21856   0.63682   0.86147   1.000
    Zr128   Zr   0.33394   0.83577   0.83605   1.000
    O129    O    0.36148   0.86323   0.78428   1.000
    O130    O    0.36139   0.78362   0.86316   1.000
    O131    O    0.28163   0.86296   0.86255   1.000
    Zr132   Zr   0.08935   0.99843   0.09048   1.000
    O133    O    0.08271   0.96788   0.12042   1.000
    O134    O    0.11948   0.96798   0.08422   1.000
    O135    O    0.08314   0.02936   0.11985   1.000
    O136    O    0.11955   0.02850   0.08454   1.000
    Zr137   Zr   0.99779   0.90765   0.09064   1.000
    O138    O    0.96794   0.87789   0.08442   1.000
    O139    O    0.02775   0.91327   0.12053   1.000
    O140    O    0.02831   0.87737   0.08505   1.000
    O141    O    0.96777   0.91457   0.12033   1.000
    Zr142   Zr   0.40921   0.50113   0.90996   1.000
    O143    O    0.37919   0.47065   0.91671   1.000
    O144    O    0.41515   0.53029   0.87949   1.000
    O145    O    0.37989   0.53110   0.91607   1.000
    O146    O    0.41560   0.47075   0.87997   1.000
    Zr147   Zr   0.91021   0.00009   0.90612   1.000
    O148    O    0.91598   0.96968   0.87664   1.000
    O149    O    0.87996   0.96994   0.91272   1.000
    O150    O    0.91664   0.03051   0.87626   1.000
    O151    O    0.87998   0.03043   0.91256   1.000
    Zr152   Zr   0.00135   0.09104   0.90683   1.000
    O153    O    0.97130   0.08527   0.87669   1.000
    O154    O    0.03130   0.12073   0.91298   1.000
    O155    O    0.03090   0.08474   0.87740   1.000
    O156    O    0.97093   0.12124   0.91298   1.000
    Zr157   Zr   0.50176   0.59067   0.90751   1.000
    O158    O    0.53178   0.58480   0.87790   1.000
    O159    O    0.47163   0.62108   0.91405   1.000
    O160    O    0.47085   0.58400   0.87796   1.000
    O161    O    0.53127   0.62059   0.91381   1.000
    Zr162   Zr   0.90939   0.09185   0.99693   1.000
    O163    O    0.91562   0.12172   0.96707   1.000
    O164    O    0.87945   0.08557   0.96711   1.000
    O165    O    0.91533   0.12167   0.02804   1.000
    O166    O    0.87939   0.08568   0.02729   1.000
    Zr167   Zr   0.90790   0.90907   0.99819   1.000
    O168    O    0.87850   0.91525   0.96800   1.000
    O169    O    0.91432   0.87863   0.96819   1.000
    O170    O    0.87816   0.91560   0.02845   1.000
    O171    O    0.91392   0.87880   0.02885   1.000
    Zr172   Zr   0.09169   0.08946   0.99906   1.000
    O173    O    0.12151   0.08349   0.96927   1.000
    O174    O    0.08555   0.11975   0.96843   1.000
    O175    O    0.08516   0.11959   0.02925   1.000
    O176    O    0.12100   0.08325   0.02964   1.000
    Zr177   Zr   0.41200   0.59363   0.99994   1.000
    O178    O    0.38161   0.58671   0.97007   1.000
    O179    O    0.41776   0.62292   0.96964   1.000
    O180    O    0.41797   0.62320   0.03094   1.000
    O181    O    0.38170   0.58722   0.03014   1.000
    Zr182   Zr   0.59185   0.59100   0.00010   1.000
    O183    O    0.58526   0.62083   0.96955   1.000
    O184    O    0.62171   0.58444   0.97015   1.000
    O185    O    0.62219   0.58461   0.03017   1.000
    O186    O    0.58590   0.62135   0.03052   1.000
    Zr187   Zr   0.08941   0.90603   0.00093   1.000
    O188    O    0.11940   0.91306   0.97088   1.000
    O189    O    0.08378   0.87629   0.97068   1.000
    O190    O    0.08343   0.87638   0.03117   1.000
    O191    O    0.11951   0.91239   0.03047   1.000
    Zr192   Zr   0.58976   0.40806   0.00157   1.000
    O193    O    0.61987   0.41442   0.97113   1.000
    O194    O    0.58340   0.37833   0.97135   1.000
    O195    O    0.58345   0.37829   0.03207   1.000
    O196    O    0.62049   0.41423   0.03119   1.000
    Zr197   Zr   0.40878   0.41098   0.00217   1.000
    O198    O    0.41496   0.38113   0.97169   1.000
    O199    O    0.37890   0.41649   0.97215   1.000
    O200    O    0.37891   0.41694   0.03209   1.000
    O201    O    0.41495   0.38104   0.03177   1.000
    Zr202   Zr   0.90766   0.00064   0.08943   1.000
    O203    O    0.91436   0.03120   0.11946   1.000
    O204    O    0.87828   0.03096   0.08290   1.000
    O205    O    0.91356   0.97038   0.11973   1.000
    O206    O    0.87795   0.97052   0.08332   1.000
    Zr207   Zr   0.99911   0.09165   0.08949   1.000
    O208    O    0.02955   0.12101   0.08357   1.000
    O209    O    0.96925   0.08595   0.11950   1.000
    O210    O    0.96924   0.12156   0.08370   1.000
    O211    O    0.02898   0.08539   0.11931   1.000
    Zr212   Zr   0.59310   0.49998   0.09103   1.000
    O213    O    0.62264   0.46950   0.08492   1.000
    O214    O    0.58647   0.53033   0.12080   1.000
    O215    O    0.62308   0.52989   0.08481   1.000
    O216    O    0.58654   0.47008   0.12156   1.000
    Zr217   Zr   0.40972   0.50284   0.09219   1.000
    O218    O    0.38023   0.53265   0.08551   1.000
    O219    O    0.41548   0.47246   0.12204   1.000
    O220    O    0.37945   0.47219   0.08617   1.000
    O221    O    0.41599   0.53267   0.12208   1.000
    Zr222   Zr   0.50200   0.59267   0.09187   1.000
    O223    O    0.47153   0.58658   0.12190   1.000
    O224    O    0.53195   0.62240   0.08573   1.000
    O225    O    0.53177   0.58597   0.12141   1.000
    O226    O    0.47197   0.62259   0.08629   1.000
    Zr227   Zr   0.50041   0.41055   0.09387   1.000
    O228    O    0.53082   0.41636   0.12339   1.000
    O229    O    0.46998   0.38082   0.08686   1.000
    O230    O    0.46992   0.41696   0.12314   1.000
    O231    O    0.52988   0.37979   0.08767   1.000
    Zr232   Zr   0.33677   0.33507   0.33512   1.000
    O233    O    0.36262   0.36245   0.28276   1.000
    O234    O    0.28475   0.36207   0.36239   1.000
    O235    O    0.36395   0.28297   0.36189   1.000
    Zr236   Zr   0.83599   0.16370   0.33594   1.000
    O237    O    0.78369   0.13610   0.36197   1.000
    O238    O    0.86195   0.21629   0.36361   1.000
    O239    O    0.86402   0.13829   0.28332   1.000
    Zr240   Zr   0.00143   0.40896   0.40931   1.000
    O241    O    0.97097   0.41540   0.37979   1.000
    O242    O    0.03150   0.37876   0.41531   1.000
    O243    O    0.03138   0.41531   0.37923   1.000
    O244    O    0.97058   0.37916   0.41542   1.000
    Zr245   Zr   0.50066   0.90969   0.40918   1.000
    O246    O    0.53080   0.91651   0.37954   1.000
    O247    O    0.53090   0.87988   0.41564   1.000
    O248    O    0.47065   0.87940   0.41518   1.000
    O249    O    0.46993   0.91586   0.37908   1.000
    Zr250   Zr   0.33460   0.66513   0.33671   1.000
    O251    O    0.36187   0.63824   0.28430   1.000
    O252    O    0.36246   0.71673   0.36365   1.000
    O253    O    0.28224   0.63896   0.36346   1.000
    Zr254   Zr   0.66275   0.66505   0.33597   1.000
    O255    O    0.63631   0.71721   0.36330   1.000
    O256    O    0.63597   0.63835   0.28363   1.000
    O257    O    0.71534   0.63714   0.36230   1.000
    Zr258   Zr   0.66358   0.33389   0.33645   1.000
    O259    O    0.63659   0.36162   0.28483   1.000
    O260    O    0.63542   0.28229   0.36260   1.000
    O261    O    0.71609   0.36044   0.36358   1.000
    Zr262   Zr   0.83432   0.83710   0.33523   1.000
    O263    O    0.86129   0.86440   0.28327   1.000
    O264    O    0.86070   0.78447   0.36262   1.000
    O265    O    0.78202   0.86451   0.36171   1.000
    Zr266   Zr   0.16169   0.16299   0.33464   1.000
    O267    O    0.13443   0.13723   0.28216   1.000
    O268    O    0.21450   0.13579   0.36050   1.000
    O269    O    0.13525   0.21463   0.36242   1.000
    Zr270   Zr   0.16382   0.83531   0.33585   1.000
    O271    O    0.21603   0.86348   0.36131   1.000
    O272    O    0.13492   0.86064   0.28351   1.000
    O273    O    0.13855   0.78302   0.36389   1.000
    Zr274   Zr   0.59126   0.00160   0.40957   1.000
    O275    O    0.62103   0.97166   0.41578   1.000
    O276    O    0.58532   0.97162   0.37977   1.000
    O277    O    0.58495   0.03116   0.37949   1.000
    O278    O    0.62094   0.03145   0.41542   1.000
    Zr279   Zr   0.49839   0.09100   0.40859   1.000
    O280    O    0.46838   0.08515   0.37837   1.000
    O281    O    0.46863   0.12061   0.41497   1.000
    O282    O    0.52843   0.12072   0.41476   1.000
    O283    O    0.52903   0.08479   0.37886   1.000
    Zr284   Zr   0.90877   0.50026   0.40948   1.000
    O285    O    0.91523   0.47011   0.37984   1.000
    O286    O    0.87854   0.46982   0.41560   1.000
    O287    O    0.91522   0.52985   0.37973   1.000
    O288    O    0.87888   0.53048   0.41522   1.000
    Zr289   Zr   0.09120   0.50111   0.40850   1.000
    O290    O    0.12102   0.53108   0.41525   1.000
    O291    O    0.08517   0.47086   0.37871   1.000
    O292    O    0.12151   0.47053   0.41422   1.000
    O293    O    0.08470   0.53142   0.37889   1.000
    Zr294   Zr   0.99976   0.59233   0.41065   1.000
    O295    O    0.03038   0.62201   0.41698   1.000
    O296    O    0.02973   0.58619   0.38029   1.000
    O297    O    0.96929   0.62225   0.41655   1.000
    O298    O    0.96983   0.58518   0.38049   1.000
    Zr299   Zr   0.40777   0.99955   0.40809   1.000
    O300    O    0.37768   0.02952   0.41389   1.000
    O301    O    0.41409   0.96983   0.37838   1.000
    O302    O    0.37822   0.96956   0.41394   1.000
    O303    O    0.41397   0.03012   0.37815   1.000
    Zr304   Zr   0.33453   0.16602   0.16251   1.000
    O305    O    0.36232   0.13877   0.21470   1.000
    O306    O    0.36091   0.21853   0.13590   1.000
    O307    O    0.28184   0.13831   0.13662   1.000
    Zr308   Zr   0.16357   0.33452   0.16408   1.000
    O309    O    0.13607   0.28264   0.13718   1.000
    O310    O    0.13755   0.36166   0.21691   1.000
    O311    O    0.21628   0.36175   0.13734   1.000
    Zr312   Zr   0.66371   0.33379   0.66360   1.000
    O313    O    0.63739   0.28138   0.63704   1.000
    O314    O    0.63618   0.36097   0.71577   1.000
    O315    O    0.71569   0.36163   0.63651   1.000
    Zr316   Zr   0.66440   0.83712   0.16580   1.000
    O317    O    0.71623   0.86433   0.13789   1.000
    O318    O    0.63855   0.86448   0.21832   1.000
    O319    O    0.63713   0.78496   0.13896   1.000
    Zr320   Zr   0.83515   0.33732   0.83489   1.000
    O321    O    0.78294   0.36440   0.86194   1.000
    O322    O    0.86257   0.36410   0.78295   1.000
    O323    O    0.86169   0.28444   0.86149   1.000
    Zr324   Zr   0.33515   0.66573   0.66532   1.000
    O325    O    0.28348   0.63950   0.63684   1.000
    O326    O    0.36374   0.71714   0.63904   1.000
    O327    O    0.36116   0.63668   0.71712   1.000
    Zr328   Zr   0.16566   0.83457   0.66394   1.000
    O329    O    0.13856   0.78225   0.63765   1.000
    O330    O    0.13911   0.86217   0.71629   1.000
    O331    O    0.21793   0.86108   0.63657   1.000
    Zr332   Zr   0.66331   0.16597   0.83559   1.000
    O333    O    0.71622   0.13927   0.86211   1.000
    O334    O    0.63585   0.13821   0.78427   1.000
    O335    O    0.63559   0.21702   0.86314   1.000
    Zr336   Zr   0.83532   0.66433   0.16646   1.000
    O337    O    0.86169   0.63642   0.21845   1.000
    O338    O    0.86303   0.71569   0.13854   1.000
    O339    O    0.78429   0.63655   0.13872   1.000
    Zr340   Zr   0.16428   0.16381   0.66456   1.000
    O341    O    0.13880   0.21606   0.63616   1.000
    O342    O    0.13644   0.13830   0.71672   1.000
    O343    O    0.21611   0.13531   0.63889   1.000
    Zr344   Zr   0.83468   0.16702   0.66343   1.000
    O345    O    0.86315   0.13974   0.71494   1.000
    O346    O    0.78246   0.13995   0.63670   1.000
    O347    O    0.86107   0.21869   0.63626   1.000
    Zr348   Zr   0.40726   0.08929   0.50004   1.000
    O349    O    0.41338   0.11951   0.53025   1.000
    O350    O    0.37765   0.08291   0.53074   1.000
    O351    O    0.41392   0.11951   0.46992   1.000
    O352    O    0.37743   0.08340   0.46922   1.000
    Zr353   Zr   0.40829   0.99893   0.59195   1.000
    O354    O    0.41459   0.96893   0.62189   1.000
    O355    O    0.37828   0.02874   0.58610   1.000
    O356    O    0.37888   0.96892   0.58488   1.000
    O357    O    0.41426   0.02919   0.62225   1.000
    Zr358   Zr   0.58978   0.00116   0.59215   1.000
    O359    O    0.58361   0.03110   0.62213   1.000
    O360    O    0.61987   0.97089   0.58564   1.000
    O361    O    0.62003   0.03125   0.58561   1.000
    O362    O    0.58374   0.97065   0.62196   1.000
    Zr363   Zr   0.50015   0.90855   0.59150   1.000
    O364    O    0.47037   0.87870   0.58555   1.000
    O365    O    0.52997   0.91492   0.62161   1.000
    O366    O    0.46986   0.91468   0.62154   1.000
    O367    O    0.53064   0.87863   0.58467   1.000
    Zr368   Zr   0.59140   0.91026   0.50110   1.000
    O369    O    0.58551   0.87959   0.53037   1.000
    O370    O    0.62089   0.91625   0.53097   1.000
    O371    O    0.62110   0.91683   0.47082   1.000
    O372    O    0.58536   0.88031   0.47091   1.000
    Zr373   Zr   0.49757   0.09096   0.59267   1.000
    O374    O    0.46789   0.08457   0.62270   1.000
    O375    O    0.52787   0.12061   0.58591   1.000
    O376    O    0.52824   0.08515   0.62258   1.000
    O377    O    0.46755   0.12057   0.58598   1.000
    Zr378   Zr   0.83500   0.66270   0.83440   1.000
    O379    O    0.78399   0.63540   0.86274   1.000
    O380    O    0.86234   0.71552   0.86035   1.000
    O381    O    0.86149   0.63554   0.78203   1.000
    Zr382   Zr   0.16555   0.33577   0.83654   1.000
    O383    O    0.21767   0.36160   0.86468   1.000
    O384    O    0.13726   0.28356   0.86187   1.000
    O385    O    0.13953   0.36354   0.78386   1.000
    Zr386   Zr   0.33704   0.33501   0.66595   1.000
    O387    O    0.28464   0.36235   0.63939   1.000
    O388    O    0.36360   0.28304   0.63840   1.000
    O389    O    0.36429   0.36157   0.71822   1.000
    Zr390   Zr   0.40926   0.90829   0.49949   1.000
    O391    O    0.37940   0.91444   0.52940   1.000
    O392    O    0.41581   0.87858   0.53023   1.000
    O393    O    0.41564   0.87847   0.46939   1.000
    O394    O    0.37916   0.91474   0.46886   1.000
    Zr395   Zr   0.58949   0.09165   0.50112   1.000
    O396    O    0.61991   0.08566   0.53089   1.000
    O397    O    0.58313   0.12100   0.53101   1.000
    O398    O    0.61987   0.08554   0.47049   1.000
    O399    O    0.58304   0.12107   0.47043   1.000
    Zr400   Zr   0.33579   0.83632   0.16458   1.000
    O401    O    0.36186   0.86439   0.21642   1.000
    O402    O    0.36438   0.78425   0.13941   1.000
    O403    O    0.28302   0.86131   0.13662   1.000
    Zr404   Zr   0.83713   0.33679   0.16581   1.000
    O405    O    0.86426   0.28416   0.13903   1.000
    O406    O    0.86363   0.36405   0.21780   1.000
    O407    O    0.78507   0.36346   0.13816   1.000
    Zr408   Zr   0.83465   0.83518   0.66299   1.000
    O409    O    0.86188   0.86287   0.71493   1.000
    O410    O    0.78272   0.86211   0.63573   1.000
    O411    O    0.86183   0.78226   0.63735   1.000
    Zr412   Zr   0.66618   0.66362   0.66320   1.000
    O413    O    0.63844   0.63810   0.71591   1.000
    O414    O    0.63903   0.71525   0.63472   1.000
    O415    O    0.71836   0.63605   0.63786   1.000
    Zr416   Zr   0.16540   0.66269   0.16481   1.000
    O417    O    0.21767   0.63613   0.13800   1.000
    O418    O    0.13842   0.71520   0.13807   1.000
    O419    O    0.13754   0.63620   0.21666   1.000
    Zr420   Zr   0.90857   0.40849   0.49941   1.000
    O421    O    0.91467   0.37894   0.46940   1.000
    O422    O    0.87841   0.41460   0.46963   1.000
    O423    O    0.87863   0.41454   0.52985   1.000
    O424    O    0.91503   0.37878   0.52918   1.000
    Zr425   Zr   0.09201   0.59133   0.50080   1.000
    O426    O    0.08591   0.62139   0.47106   1.000
    O427    O    0.12153   0.58531   0.47064   1.000
    O428    O    0.12212   0.58527   0.53031   1.000
    O429    O    0.08558   0.62095   0.53098   1.000
    Zr430   Zr   0.66542   0.16311   0.16587   1.000
    O431    O    0.63890   0.13627   0.21804   1.000
    O432    O    0.63711   0.21570   0.13981   1.000
    O433    O    0.71708   0.13651   0.13747   1.000
    Zr434   Zr   0.90862   0.59155   0.50071   1.000
    O435    O    0.87884   0.58527   0.47008   1.000
    O436    O    0.91442   0.62182   0.47063   1.000
    O437    O    0.91516   0.62096   0.53096   1.000
    O438    O    0.87897   0.58455   0.53095   1.000
    Zr439   Zr   0.09377   0.40950   0.49919   1.000
    O440    O    0.12317   0.41548   0.46875   1.000
    O441    O    0.08700   0.37917   0.46932   1.000
    O442    O    0.08773   0.37945   0.52921   1.000
    O443    O    0.12347   0.41566   0.52973   1.000
    Zr444   Zr   0.00143   0.40834   0.58961   1.000
    O445    O    0.03157   0.41489   0.62010   1.000
    O446    O    0.97089   0.37864   0.58328   1.000
    O447    O    0.97105   0.41442   0.61975   1.000
    O448    O    0.03216   0.37879   0.58341   1.000
    Zr449   Zr   0.00064   0.58993   0.59115   1.000
    O450    O    0.97032   0.58347   0.62084   1.000
    O451    O    0.03061   0.62008   0.58522   1.000
    O452    O    0.03076   0.58366   0.62101   1.000
    O453    O    0.97053   0.61997   0.58523   1.000
    Zr454   Zr   0.90931   0.49892   0.59100   1.000
    O455    O    0.87935   0.52882   0.58513   1.000
    O456    O    0.91569   0.46884   0.62070   1.000
    O457    O    0.87919   0.46894   0.58484   1.000
    O458    O    0.91541   0.52883   0.62078   1.000
    Zr459   Zr   0.09266   0.49928   0.59133   1.000
    O460    O    0.08613   0.52927   0.62117   1.000
    O461    O    0.12277   0.46948   0.58523   1.000
    O462    O    0.12250   0.52995   0.58470   1.000
    O463    O    0.08645   0.46949   0.62110   1.000
loop_
    _geom_bond_atom_site_label_1
    _geom_bond_atom_site_label_2
    _geom_bond_distance
    _geom_bond_site_symmetry_2
    _ccdc_geom_bond_type
    Zr96   O97       3.11587  1_565   S
    N21    O97       6.48259      .   S
    Zr96   O98       3.05863      .   S
    N27    O98       6.35494      .   S
    Zr96   O99       3.10344  1_565   S
    N24    O99       6.45908      .   S
    Zr96   O100      3.02041      .   S
    N38    O100      6.28012      .   S
    Zr101  O102      3.07572      .   S
    N35    O102      6.39510      .   S
    Zr101  O103      3.09129      .   S
    N5     O103      6.43717      .   S
    Zr101  O104      3.02736      .   S
    N28    O104      6.29213      .   S
    Zr101  O105      3.10792      .   S
    N15    O105      6.47258      .   S
    Zr106  O107      4.64827      .   S
    N12    O107      8.42896      .   S
    Zr106  O108      4.63672      .   S
    N24    O108      8.42172      .   S
    Zr106  O109      4.64102      .   S
    N9     O109      8.41730      .   S
    Zr110  O111      4.63284      .   S
    N33    O111      8.40564      .   S
    Zr110  O112      4.60534      .   S
    N18    O112      8.36522      .   S
    Zr110  O113      4.61383      .   S
    N13    O113      8.38172      .   S
    Zr114  O115      3.09645  1_655   S
    N27    O115      6.44271      .   S
    Zr114  O116      3.05683      .   S
    N36    O116      6.35351      .   S
    Zr114  O117      3.08254      .   S
    N11    O117      6.42311      .   S
    Zr114  O118      3.07433  1_655   S
    N31    O118      6.39938      .   S
    Zr119  O120      3.03983      .   S
    N7     O120      6.31435      .   S
    Zr119  O121      3.06134      .   S
    N30    O121      6.36671      .   S
    Zr119  O122      3.08713      .   S
    N5     O122      6.41229      .   S
    Zr119  O123      3.04247      .   S
    N9     O123      6.32391      .   S
    Zr124  O125      4.64147      .   S
    N23    O125      8.41622      .   S
    Zr124  O126      4.62844      .   S
    N31    O126      8.40466      .   S
    Zr124  O127      4.62890      .   S
    N37    O127      8.39280      .   S
    Zr128  O129      4.63514      .   S
    N14    O129      8.40503      .   S
    Zr128  O130      4.62932      .   S
    N34    O130      8.40313      .   S
    Zr128  O131      4.62560      .   S
    N38    O131      8.38768      .   S
    Zr132  O133      3.09370      .   S
    N79    O133      6.44277      .   S
    Zr132  O134      3.09401      .   S
    N45    O134      6.44028      .   S
    Zr132  O135      3.08807  1_565   S
    N82    O135      6.43261      .   S
    Zr132  O136      3.08018  1_565   S
    N42    O136      6.41541      .   S
    Zr137  O138      3.05004      .   S
    N17    O138      6.33743      .   S
    Zr137  O139      3.05373  1_655   S
    N79    O139      6.34759      .   S
    Zr137  O140      3.09800  1_655   S
    N47    O140      6.44859      .   S
    Zr137  O141      3.06545      .   S
    N81    O141      6.38710      .   S
    Zr142  O143      3.09979      .   S
    N32    O143      6.44783      .   S
    Zr142  O144      3.04412      .   S
    N8     O144      6.32720      .   S
    Zr142  O145      3.02823      .   S
    N37    O145      6.29524      .   S
    Zr142  O146      3.09254      .   S
    N7     O146      6.43440      .   S
    Zr147  O148      3.06261  1_545   S
    N11    O148      6.36428      .   S
    Zr147  O149      3.09330  1_545   S
    N33    O149      6.44577      .   S
    Zr147  O150      3.08093      .   S
    N6     O150      6.41325      .   S
    Zr147  O151      3.09483      .   S
    N3     O151      6.44141      .   S
    Zr152  O153      3.07157  1_455   S
    N6     O153      6.38178      .   S
    Zr152  O154      3.05108      .   S
    N29    O154      6.33947      .   S
    Zr152  O155      3.02154      .   S
    N21    O155      6.28297      .   S
    Zr152  O156      3.09511  1_455   S
    N22    O156      6.44235      .   S
    Zr157  O158      3.05038      .   S
    N15    O158      6.33781      .   S
    Zr157  O159      3.09476      .   S
    N34    O159      6.44083      .   S
    Zr157  O160      3.09549      .   S
    N8     O160      6.43988      .   S
    Zr157  O161      3.04234      .   S
    N18    O161      6.32539      .   S
    Zr162  O163      3.05201      .   S
    N22    O163      6.34207      .   S
    Zr162  O164      3.05562      .   S
    N3     O164      6.34849      .   S
    Zr162  O165      3.11665  1_556   S
    N40    O165      6.48996      .   S
    Zr162  O166      3.08854  1_556   S
    N39    O166      6.43691      .   S
    Zr167  O168      3.04279      .   S
    N33    O168      6.32254      .   S
    Zr167  O169      3.09692      .   S
    N36    O169      6.44589      .   S
    Zr167  O170      3.07473  1_556   S
    N41    O170      6.40976      .   S
    Zr167  O171      3.10706  1_556   S
    N17    O171      6.46933      .   S
    Zr172  O173      3.04957      .   S
    N24    O173      6.34095      .   S
    Zr172  O174      3.10712      .   S
    N29    O174      6.46861      .   S
    Zr172  O175      3.09190  1_556   S
    N16    O175      6.44025      .   S
    Zr172  O176      3.05879  1_556   S
    N42    O176      6.35670      .   S
    Zr177  O178      3.08763      .   S
    N37    O178      6.42632      .   S
    Zr177  O179      3.04046      .   S
    N34    O179      6.31790      .   S
    Zr177  O180      3.09911  1_556   S
    N25    O180      6.45383      .   S
    Zr177  O181      3.09845  1_556   S
    N1     O181      6.45503      .   S
    Zr182  O183      3.08517  1_554   S
    N18    O183      6.42638      .   S
    Zr182  O184      3.06591  1_554   S
    N35    O184      6.38952      .   S
    Zr182  O185      3.08631      .   S
    N43    O185      6.42987      .   S
    Zr182  O186      3.10844      .   S
    N44    O186      6.47256      .   S
    Zr187  O188      3.08265  1_554   S
    N38    O188      6.41676      .   S
    Zr187  O189      3.06654  1_554   S
    N31    O189      6.37075      .   S
    Zr187  O190      3.05716      .   S
    N47    O190      6.35089      .   S
    Zr187  O191      3.05042      .   S
    N45    O191      6.34020      .   S
    Zr192  O193      3.10031  1_554   S
    N28    O193      6.45885      .   S
    Zr192  O194      3.07211  1_554   S
    N30    O194      6.40176      .   S
    Zr192  O195      3.07968      .   S
    N20    O195      6.41051      .   S
    Zr192  O196      3.08368      .   S
    N46    O196      6.42366      .   S
    Zr197  O198      3.08870  1_554   S
    N9     O198      6.43113      .   S
    Zr197  O199      3.05184  1_554   S
    N32    O199      6.34528      .   S
    Zr197  O200      3.05905      .   S
    N19    O200      6.35743      .   S
    Zr197  O201      3.03885      .   S
    N26    O201      6.31613      .   S
    Zr202  O203      3.10748      .   S
    N83    O203      6.46889      .   S
    Zr202  O204      3.04979      .   S
    N39    O204      6.33609      .   S
    Zr202  O205      3.08692  1_545   S
    N81    O205      6.41139      .   S
    Zr202  O206      3.05971  1_545   S
    N41    O206      6.35998      .   S
    Zr207  O208      3.05665  1_655   S
    N16    O208      6.35206      .   S
    Zr207  O209      3.06017      .   S
    N83    O209      6.35876      .   S
    Zr207  O210      3.04616      .   S
    N40    O210      6.32960      .   S
    Zr207  O211      3.04891  1_655   S
    N82    O211      6.33911      .   S
    Zr212  O213      3.06512      .   S
    N46    O213      6.36738      .   S
    Zr212  O214      3.08255      .   S
    N80    O214      6.42203      .   S
    Zr212  O215      3.06404      .   S
    N43    O215      6.36656      .   S
    Zr212  O216      3.09078      .   S
    N76    O216      6.43668      .   S
    Zr217  O218      3.03068      .   S
    N1     O218      6.29812      .   S
    Zr217  O219      3.06920      .   S
    N77    O219      6.39182      .   S
    Zr217  O220      3.11384      .   S
    N19    O220      6.47870      .   S
    Zr217  O221      3.05893      .   S
    N78    O221      6.35576      .   S
    Zr222  O223      3.09594      .   S
    N78    O223      6.44380      .   S
    Zr222  O224      3.05218      .   S
    N44    O224      6.34200      .   S
    Zr222  O225      3.03409      .   S
    N80    O225      6.30489      .   S
    Zr222  O226      3.05212      .   S
    N25    O226      6.34440      .   S
    Zr227  O228      3.05913      .   S
    N76    O228      6.35418      .   S
    Zr227  O229      3.08710      .   S
    N26    O229      6.42573      .   S
    Zr227  O230      3.06245      .   S
    N77    O230      6.35707      .   S
    Zr227  O231      3.07582      .   S
    N20    O231      6.39129      .   S
    Zr232  O233      4.61646      .   S
    N77    O233      8.37501      .   S
    Zr232  O234      4.62598      .   S
    N66    O234      8.39065      .   S
    Zr232  O235      4.60826      .   S
    N49    O235      8.37232      .   S
    Zr236  O237      4.62615      .   S
    N48    O237      8.40508      .   S
    Zr236  O238      4.64443      .   S
    N71    O238      8.42400      .   S
    Zr236  O239      4.64488      .   S
    N83    O239      8.42205      .   S
    Zr240  O241      3.06520  1_455   S
    N57    O241      6.39080      .   S
    Zr240  O242      3.07287      .   S
    N72    O242      6.38451      .   S
    Zr240  O243      3.07462      .   S
    N56    O243      6.38664      .   S
    Zr240  O244      3.10107  1_455   S
    N71    O244      6.45944      .   S
    Zr245  O246      3.06711      .   S
    N55    O246      6.38562      .   S
    Zr245  O247      3.06619      .   S
    N68    O247      6.36759      .   S
    Zr245  O248      3.08218      .   S
    N64    O248      6.42199      .   S
    Zr245  O249      3.10450      .   S
    N59    O249      6.46455      .   S
    Zr250  O251      4.65207      .   S
    N78    O251      8.43508      .   S
    Zr250  O252      4.62115      .   S
    N64    O252      8.38346      .   S
    Zr250  O253      4.60869      .   S
    N58    O253      8.37639      .   S
    Zr254  O255      4.61893      .   S
    N68    O255      8.39052      .   S
    Zr254  O256      4.62475      .   S
    N80    O256      8.38643      .   S
    Zr254  O257      4.64681      .   S
    N65    O257      8.42384      .   S
    Zr258  O259      4.60765      .   S
    N76    O259      8.36603      .   S
    Zr258  O260      4.60251      .   S
    N67    O260      8.35846      .   S
    Zr258  O261      4.63691      .   S
    N63    O261      8.41701      .   S
    Zr262  O263      4.62398      .   S
    N81    O263      8.38761      .   S
    Zr262  O264      4.63452      .   S
    N70    O264      8.41692      .   S
    Zr262  O265      4.63038      .   S
    N69    O265      8.39791      .   S
    Zr266  O267      4.61924      .   S
    N82    O267      8.39110      .   S
    Zr266  O268      4.62514      .   S
    N54    O268      8.40413      .   S
    Zr266  O269      4.60302      .   S
    N72    O269      8.38752      .   S
    Zr270  O271      4.61972      .   S
    N52    O271      8.39042      .   S
    Zr270  O272      4.63779      .   S
    N79    O272      8.40805      .   S
    Zr270  O273      4.61295      .   S
    N51    O273      8.36688      .   S
    Zr274  O275      3.04639  1_545   S
    N69    O275      6.33110      .   S
    Zr274  O276      3.05846  1_545   S
    N55    O276      6.35579      .   S
    Zr274  O277      3.04515      .   S
    N53    O277      6.32570      .   S
    Zr274  O278      3.04234      .   S
    N48    O278      6.32152      .   S
    Zr279  O280      3.07442      .   S
    N61    O280      6.38556      .   S
    Zr279  O281      3.03452      .   S
    N49    O281      6.30711      .   S
    Zr279  O282      3.05735      .   S
    N67    O282      6.35385      .   S
    Zr279  O283      3.09088      .   S
    N53    O283      6.43263      .   S
    Zr284  O285      3.06443      .   S
    N57    O285      6.36633      .   S
    Zr284  O286      3.10197      .   S
    N63    O286      6.45424      .   S
    Zr284  O287      3.03468      .   S
    N60    O287      6.30976      .   S
    Zr284  O288      3.06525      .   S
    N65    O288      6.36843      .   S
    Zr289  O290      3.06431      .   S
    N58    O290      6.38018      .   S
    Zr289  O291      3.07289      .   S
    N56    O291      6.40090      .   S
    Zr289  O292      3.10087      .   S
    N66    O292      6.45689      .   S
    Zr289  O293      3.06116      .   S
    N62    O293      6.35594      .   S
    Zr294  O295      3.08687  1_655   S
    N51    O295      6.42668      .   S
    Zr294  O296      3.08757  1_655   S
    N62    O296      6.43368      .   S
    Zr294  O297      3.08092      .   S
    N70    O297      6.41169      .   S
    Zr294  O298      3.08185      .   S
    N60    O298      6.41372      .   S
    Zr299  O300      3.06293  1_565   S
    N54    O300      6.36538      .   S
    Zr299  O301      3.04516      .   S
    N59    O301      6.32718      .   S
    Zr299  O302      3.04226      .   S
    N52    O302      6.32453      .   S
    Zr299  O303      3.09097  1_565   S
    N61    O303      6.43754      .   S
    Zr304  O305      4.64963      .   S
    N61    O305      8.43032      .   S
    Zr304  O306      4.61405      .   S
    N26    O306      8.38384      .   S
    Zr304  O307      4.64626      .   S
    N42    O307      8.42730      .   S
    Zr308  O309      4.62510      .   S
    N16    O309      8.40462      .   S
    Zr308  O310      4.64713      .   S
    N56    O310      8.42964      .   S
    Zr308  O311      4.65957      .   S
    N19    O311      8.44944      .   S
    Zr312  O313      4.61069      .   S
    N85    O313      8.37894      .   S
    Zr312  O314      4.65445      .   S
    N5     O314      8.43998      .   S
    Zr312  O315      4.64626      .   S
    N95    O315      8.42734      .   S
    Zr316  O317      4.64302      .   S
    N41    O317      8.42112      .   S
    Zr316  O318      4.63084      .   S
    N55    O318      8.39958      .   S
    Zr316  O319      4.63299      .   S
    N44    O319      8.41366      .   S
    Zr320  O321      4.63274      .   S
    N28    O321      8.40082      .   S
    Zr320  O322      4.62097      .   S
    N10    O322      8.38302      .   S
    Zr320  O323      4.62964      .   S
    N22    O323      8.40828      .   S
    Zr324  O325      4.62085      .   S
    N94    O325      8.38929      .   S
    Zr324  O326      4.60835      .   S
    N84    O326      8.37659      .   S
    Zr324  O327      4.62998      .   S
    N8     O327      8.39479      .   S
    Zr328  O329      4.62055      .   S
    N93    O329      8.39456      .   S
    Zr328  O330      4.64812      .   S
    N27    O330      8.42640      .   S
    Zr328  O331      4.63148      .   S
    N86    O331      8.39969      .   S
    Zr332  O333      4.63522      .   S
    N3     O333      8.41566      .   S
    Zr332  O334      4.61891      .   S
    N2     O334      8.38022      .   S
    Zr332  O335      4.60104      .   S
    N30    O335      8.36977      .   S
    Zr336  O337      4.61588      .   S
    N60    O337      8.38220      .   S
    Zr336  O338      4.62709      .   S
    N17    O338      8.40326      .   S
    Zr336  O339      4.60767      .   S
    N43    O339      8.37869      .   S
    Zr340  O341      4.61716      .   S
    N90    O341      8.37616      .   S
    Zr340  O342      4.61002      .   S
    N21    O342      8.36194      .   S
    Zr340  O343      4.61416      .   S
    N50    O343      8.38116      .   S
    Zr344  O345      4.63235      .   S
    N6     O345      8.40870      .   S
    Zr344  O346      4.62393      .   S
    N87    O346      8.40184      .   S
    Zr344  O347      4.58254      .   S
    N92    O347      8.35414      .   S
    Zr348  O349      3.09322      .   S
    N73    O349      6.44427      .   S
    Zr348  O350      3.08972      .   S
    N50    O350      6.43734      .   S
    Zr348  O351      3.08681      .   S
    N49    O351      6.43098      .   S
    Zr348  O352      3.09684      .   S
    N54    O352      6.44961      .   S
    Zr353  O354      3.05997      .   S
    N14    O354      6.35406      .   S
    Zr353  O355      3.04844  1_565   S
    N50    O355      6.33502      .   S
    Zr353  O356      3.05057      .   S
    N86    O356      6.35289      .   S
    Zr353  O357      3.09770  1_565   S
    N12    O357      6.44691      .   S
    Zr358  O359      3.06781      .   S
    N2     O359      6.38901      .   S
    Zr358  O360      3.08530  1_545   S
    N75    O360      6.42992      .   S
    Zr358  O361      3.08970      .   S
    N87    O361      6.42944      .   S
    Zr358  O362      3.07932  1_545   S
    N13    O362      6.41417      .   S
    Zr363  O364      3.04895      .   S
    N84    O364      6.33807      .   S
    Zr363  O365      3.06486      .   S
    N13    O365      6.36804      .   S
    Zr363  O366      3.08734      .   S
    N14    O366      6.43094      .   S
    Zr363  O367      3.09199      .   S
    N74    O367      6.43897      .   S
    Zr368  O369      3.05920      .   S
    N74    O369      6.35635      .   S
    Zr368  O370      3.03285      .   S
    N75    O370      6.30420      .   S
    Zr368  O371      3.07505      .   S
    N69    O371      6.40136      .   S
    Zr368  O372      3.07764      .   S
    N68    O372      6.41111      .   S
    Zr373  O374      3.05921      .   S
    N12    O374      6.35391      .   S
    Zr373  O375      3.07340      .   S
    N85    O375      6.40079      .   S
    Zr373  O376      3.08953      .   S
    N2     O376      6.41376      .   S
    Zr373  O377      3.04753      .   S
    N73    O377      6.32829      .   S
    Zr378  O379      4.61255      .   S
    N35    O379      8.37820      .   S
    Zr378  O380      4.64680      .   S
    N36    O380      8.42624      .   S
    Zr378  O381      4.63463      .   S
    N0     O381      8.40580      .   S
    Zr382  O383      4.62419      .   S
    N32    O383      8.39923      .   S
    Zr382  O384      4.61790      .   S
    N29    O384      8.37693      .   S
    Zr382  O385      4.64162      .   S
    N4     O385      8.41616      .   S
    Zr386  O387      4.62536      .   S
    N89    O387      8.39965      .   S
    Zr386  O388      4.61821      .   S
    N73    O388      8.37657      .   S
    Zr386  O389      4.63030      .   S
    N7     O389      8.39653      .   S
    Zr390  O391      3.06020      .   S
    N86    O391      6.35953      .   S
    Zr390  O392      3.08899      .   S
    N84    O392      6.43419      .   S
    Zr390  O393      3.07040      .   S
    N64    O393      6.37482      .   S
    Zr390  O394      3.10189      .   S
    N52    O394      6.46004      .   S
    Zr395  O396      3.07122      .   S
    N87    O396      6.37916      .   S
    Zr395  O397      3.03633      .   S
    N85    O397      6.31120      .   S
    Zr395  O398      3.12191      .   S
    N48    O398      6.49992      .   S
    Zr395  O399      3.07125      .   S
    N67    O399      6.40187      .   S
    Zr400  O401      4.61640      .   S
    N59    O401      8.37358      .   S
    Zr400  O402      4.61655      .   S
    N25    O402      8.37515      .   S
    Zr400  O403      4.62126      .   S
    N45    O403      8.39415      .   S
    Zr404  O405      4.65045      .   S
    N40    O405      8.43188      .   S
    Zr404  O406      4.61249      .   S
    N57    O406      8.37036      .   S
    Zr404  O407      4.61916      .   S
    N46    O407      8.39263      .   S
    Zr408  O409      4.64539      .   S
    N11    O409      8.42159      .   S
    Zr408  O410      4.60721      .   S
    N75    O410      8.36875      .   S
    Zr408  O411      4.63511      .   S
    N91    O411      8.40599      .   S
    Zr412  O413      4.63889      .   S
    N15    O413      8.41457      .   S
    Zr412  O414      4.63297      .   S
    N74    O414      8.40151      .   S
    Zr412  O415      4.59560      .   S
    N88    O415      8.33711      .   S
    Zr416  O417      4.61340      .   S
    N1     O417      8.38178      .   S
    Zr416  O418      4.62488      .   S
    N47    O418      8.38904      .   S
    Zr416  O419      4.62058      .   S
    N62    O419      8.38200      .   S
    Zr420  O421      3.04901      .   S
    N71    O421      6.33689      .   S
    Zr420  O422      3.05904      .   S
    N63    O422      6.35447      .   S
    Zr420  O423      3.08915      .   S
    N95    O423      6.41472      .   S
    Zr420  O424      3.03884      .   S
    N92    O424      6.31956      .   S
    Zr425  O426      3.05064      .   S
    N51    O426      6.33991      .   S
    Zr425  O427      3.05384      .   S
    N58    O427      6.34784      .   S
    Zr425  O428      3.04360      .   S
    N94    O428      6.32463      .   S
    Zr425  O429      3.06504      .   S
    N93    O429      6.36702      .   S
    Zr430  O431      4.60883      .   S
    N53    O431      8.36236      .   S
    Zr430  O432      4.65044      .   S
    N20    O432      8.43139      .   S
    Zr430  O433      4.62813      .   S
    N39    O433      8.40780      .   S
    Zr434  O435      3.08778      .   S
    N65    O435      6.43094      .   S
    Zr434  O436      3.07825      .   S
    N70    O436      6.39619      .   S
    Zr434  O437      3.06009      .   S
    N91    O437      6.35776      .   S
    Zr434  O438      3.07514      .   S
    N88    O438      6.38149      .   S
    Zr439  O440      3.06165      .   S
    N66    O440      6.35923      .   S
    Zr439  O441      3.08873      .   S
    N72    O441      6.43506      .   S
    Zr439  O442      3.06619      .   S
    N90    O442      6.37160      .   S
    Zr439  O443      3.07843      .   S
    N89    O443      6.40883      .   S
    Zr444  O445      3.10197      .   S
    N4     O445      6.45590      .   S
    Zr444  O446      3.08319  1_455   S
    N92    O446      6.41853      .   S
    Zr444  O447      3.09699  1_455   S
    N10    O447      6.45100      .   S
    Zr444  O448      3.07883      .   S
    N90    O448      6.41470      .   S
    Zr449  O450      3.07493  1_455   S
    N0     O450      6.40183      .   S
    Zr449  O451      3.07178      .   S
    N93    O451      6.39414      .   S
    Zr449  O452      3.06313      .   S
    N23    O452      6.37780      .   S
    Zr449  O453      3.06588  1_455   S
    N91    O453      6.38341      .   S
    Zr454  O455      3.05095      .   S
    N88    O455      6.33421      .   S
    Zr454  O456      3.05278      .   S
    N10    O456      6.34274      .   S
    Zr454  O457      3.07404      .   S
    N95    O457      6.40466      .   S
    Zr454  O458      3.05597      .   S
    N0     O458      6.35019      .   S
    Zr459  O460      3.06683      .   S
    N23    O460      6.37154      .   S
    Zr459  O461      3.05839      .   S
    N89    O461      6.35418      .   S
    Zr459  O462      3.09938      .   S
    N94    O462      6.44877      .   S
    Zr459  O463      3.04332      .   S
    N4     O463      6.32479      .   S
