# CIF file generated by openbabel 2.4.90, see http://openbabel.sf.net
data_I
_chemical_name_common ''
_cell_length_a 14.76
_cell_length_b 14.768
_cell_length_c 14.7681
_cell_angle_alpha 119.862
_cell_angle_beta 119.897
_cell_angle_gamma 90.143
_space_group_name_H-M_alt 'P 1'
_space_group_name_Hall 'P 1'
loop_
    _symmetry_equiv_pos_as_xyz
    x,y,z
loop_
    _atom_site_label
    _atom_site_type_symbol
    _atom_site_fract_x
    _atom_site_fract_y
    _atom_site_fract_z
    _atom_site_occupancy
    N0      N    0.01664   0.47079   0.02526   1.000
    N1      N    0.68582   0.36590   0.88525   1.000
    N2      N    0.95988   0.44731   0.45496   1.000
    N3      N    0.32116   0.49145   0.24127   1.000
    N4      N    0.35366   0.40738   0.16695   1.000
    N5      N    0.51958   0.76416   0.87037   1.000
    N6      N    0.43928   0.44419   0.48738   1.000
    N7      N    0.53332   0.04975   0.77040   1.000
    N8      N    0.37569   0.55238   0.25412   1.000
    N9      N    0.26481   0.50497   0.60316   1.000
    N10     N    0.48995   0.99451   0.49722   1.000
    N11     N    0.43616   0.11376   0.71772   1.000
    N12     N    0.58136   0.17950   0.80582   1.000
    N13     N    0.19426   0.13396   0.64376   1.000
    N14     N    0.68443   0.71457   0.69201   1.000
    N15     N    0.00564   0.03543   0.51833   1.000
    N16     N    0.87505   0.06218   0.17278   1.000
    N17     N    0.48441   0.04991   0.99946   1.000
    N18     N    0.58500   0.59683   0.58709   1.000
    N19     N    0.45175   0.87746   0.21900   1.000
    N20     N    0.67271   0.49806   0.65408   1.000
    N21     N    0.36064   0.51435   0.73487   1.000
    N22     N    0.34309   0.53570   0.95844   1.000
    N23     N    0.65316   0.53765   0.77848   1.000
    N24     N    0.87719   0.79349   0.24041   1.000
    N25     N    0.94596   0.75181   0.18968   1.000
    N26     N    0.45163   0.27511   0.21866   1.000
    N27     N    0.09041   0.18312   0.53844   1.000
    N28     N    0.51260   0.58596   0.45486   1.000
    N29     N    0.47489   0.39974   0.98370   1.000
    N30     N    0.26080   0.93365   0.21871   1.000
    N31     N    0.51021   0.61414   0.04127   1.000
    N32     N    0.36649   0.63882   0.30006   1.000
    N33     N    0.34097   0.26688   0.68070   1.000
    N34     N    0.52034   0.22184   0.70812   1.000
    N35     N    0.22576   0.21181   0.92888   1.000
    N36     N    0.24476   0.38566   0.63649   1.000
    N37     N    0.40920   0.68944   0.94822   1.000
    N38     N    0.23856   0.27813   0.20128   1.000
    N39     N    0.90933   0.75059   0.52635   1.000
    N40     N    0.27597   0.84649   0.24692   1.000
    N41     N    0.67349   0.52319   0.39247   1.000
    N42     N    0.56425   0.54648   0.18329   1.000
    N43     N    0.39353   0.52281   0.79678   1.000
    N44     N    0.65663   0.40164   0.73561   1.000
    N45     N    0.77389   0.24798   0.36055   1.000
    N46     N    0.78229   0.18646   0.61090   1.000
    N47     N    0.53866   0.40160   0.62274   1.000
    N48     N    0.34382   0.40890   0.80312   1.000
    N49     N    0.60273   0.26813   0.90436   1.000
    N50     N    0.04568   0.38999   0.78795   1.000
    N51     N    0.77187   0.27954   0.65741   1.000
    N52     N    0.71361   0.99328   0.98412   1.000
    N53     N    0.11947   0.79384   0.37356   1.000
    N54     N    0.39876   0.84787   0.38785   1.000
    N55     N    0.16193   0.90718   0.66643   1.000
    N56     N    0.59198   0.34936   0.20495   1.000
    N57     N    0.41708   0.11588   0.20135   1.000
    N58     N    0.16885   0.62365   0.40598   1.000
    N59     N    0.84584   0.64625   0.61851   1.000
    N60     N    0.30013   0.32898   0.95222   1.000
    N61     N    0.60378   0.57067   0.07070   1.000
    N62     N    0.72825   0.97157   0.68809   1.000
    N63     N    0.19797   0.18673   0.36683   1.000
    N64     N    0.23343   0.05109   0.33740   1.000
    N65     N    0.30421   0.64449   0.98977   1.000
    N66     N    0.38875   0.48644   0.16751   1.000
    N67     N    0.63242   0.75594   0.07562   1.000
    N68     N    0.92092   0.37636   0.74276   1.000
    N69     N    0.89527   0.54553   0.72633   1.000
    Zr70    Zr   0.97962   0.97286   0.94814   1.000
    O71     O    0.10104   0.94484   0.04779   1.000
    O72     O    0.99616   0.99243   0.79405   1.000
    O73     O    0.97697   0.97315   0.77450   1.000
    O74     O    0.94462   0.99756   0.02954   1.000
    O75     O    0.82569   0.99629   0.93835   1.000
    O76     O    0.96609   0.96938   0.12381   1.000
    O77     O    0.86155   0.86701   0.87093   1.000
    O78     O    0.86875   0.95914   0.96663   1.000
    O79     O    0.93406   0.99481   0.03124   1.000
    O80     O    0.21757   0.04153   0.83469   1.000
    O81     O    0.77202   0.06618   0.86773   1.000
    O82     O    0.73939   0.00309   0.76582   1.000
    O83     O    0.01506   0.01853   0.17302   1.000
    O84     O    0.09561   0.10414   0.09366   1.000
    O85     O    0.96382   0.02470   0.06108   1.000
    O86     O    0.00333   0.14593   0.15755   1.000
    O87     O    0.86033   0.86742   0.82136   1.000
    O88     O    0.96455   0.97141   0.77794   1.000
    O89     O    0.86819   0.00852   0.96728   1.000
    O90     O    0.93360   0.02480   0.03159   1.000
    O91     O    0.95380   0.14621   0.10909   1.000
    O92     O    0.97958   0.14692   0.98254   1.000
    O93     O    0.09065   0.10772   0.03987   1.000
    O94     O    0.01355   0.02063   0.82743   1.000
    O95     O    0.01617   0.15302   0.97822   1.000
    O96     O    0.00920   0.14734   0.98212   1.000
    O97     O    0.84800   0.97528   0.81794   1.000
    O98     O    0.19641   0.99918   0.96795   1.000
    O99     O    0.00173   0.77527   0.98784   1.000
    O100    O    0.97791   0.76105   0.74433   1.000
    O101    O    0.95097   0.16184   0.11953   1.000
    O102    O    0.11019   0.02036   0.14956   1.000
    O103    O    0.10325   0.93515   0.05461   1.000
    O104    O    0.00076   0.15077   0.99477   1.000
    O105    O    0.85319   0.96589   0.81316   1.000
    O106    O    0.98480   0.16542   0.98316   1.000
    O107    O    0.97473   0.18367   0.98778   1.000
    O108    O    0.98214   0.17600   0.97944   1.000
    O109    O    0.10964   0.01463   0.14136   1.000
    O110    O    0.12429   0.97809   0.10533   1.000
    O111    O    0.10856   0.12602   0.06302   1.000
    O112    O    0.10449   0.11979   0.05242   1.000
    O113    O    0.11754   0.12816   0.08211   1.000
    O114    O    0.92157   0.82160   0.78644   1.000
    O115    O    0.85321   0.98492   0.83256   1.000
    O116    O    0.10798   0.10986   0.10663   1.000
    O117    O    0.09071   0.07686   0.15294   1.000
    O118    O    0.10401   0.02599   0.14190   1.000
    O119    O    0.11503   0.12830   0.06044   1.000
    O120    O    0.01578   0.77731   0.99964   1.000
    Zr121   Zr   0.70605   0.75257   0.35974   1.000
    O122    O    0.79910   0.84260   0.40873   1.000
    O123    O    0.80690   0.85208   0.41554   1.000
    Zr124   Zr   0.77020   0.10150   0.31811   1.000
    O125    O    0.76295   0.16186   0.33351   1.000
loop_
    _geom_bond_atom_site_label_1
    _geom_bond_atom_site_label_2
    _geom_bond_distance
    _geom_bond_site_symmetry_2
    _ccdc_geom_bond_type
    Zr70   O71       1.87870  1_656   S
    N30    O71       2.53833      .   S
    Zr70   O72       2.55531      .   S
    N15    O72       4.48844  1_445   S
    Zr70   O73       2.54733      .   S
    N15    O73       4.51612  1_445   S
    Zr70   O74       1.42416  1_556   S
    N16    O74       2.56906  1_545   S
    Zr70   O75       2.24253      .   S
    N52    O75       2.08323      .   S
    Zr70   O76       2.72419  1_556   S
    N15    O76       5.11728  1_445   S
    Zr70   O77       1.73530      .   S
    N14    O77       2.45869      .   S
    Zr70   O78       1.81453      .   S
    N52    O78       2.45559      .   S
    Zr70   O79       1.57830  1_556   S
    N16    O79       2.42193  1_545   S
    Zr70   O80       4.86949  1_665   S
    N11    O80       4.68023      .   S
    Zr70   O81       3.27447  1_565   S
    N12    O81       3.24628      .   S
    Zr70   O82       3.42198  1_565   S
    N10    O82       3.77410  1_565   S
    Zr70   O83       2.79163  1_666   S
    N15    O83       5.05248      .   S
    Zr70   O84       1.86409  1_666   S
    N38    O84       2.47857      .   S
    Zr70   O85       1.59359  1_566   S
    N16    O85       2.44808      .   S
    Zr70   O86       2.69524  1_666   S
    N2     O86       4.78196  1_655   S
    Zr70   O87       1.68132      .   S
    N14    O87       2.49358      .   S
    Zr70   O88       2.39941      .   S
    N15    O88       4.67816  1_445   S
    Zr70   O89       1.83903  1_565   S
    N52    O89       2.43652  1_565   S
    Zr70   O90       1.56985  1_566   S
    N16    O90       2.45998      .   S
    Zr70   O91       2.68277  1_566   S
    N2     O91       4.77424      .   S
    Zr70   O92       2.35925  1_565   S
    N0     O92       4.49574  1_454   S
    Zr70   O93       1.88980  1_666   S
    N38    O93       2.36485      .   S
    Zr70   O94       2.46309  1_665   S
    N15    O94       4.62187      .   S
    Zr70   O95       2.47878  1_665   S
    N0     O95       4.38800  1_554   S
    Zr70   O96       2.36023  1_665   S
    N0     O96       4.48690  1_554   S
    Zr70   O97       1.95387      .   S
    N62    O97       1.82222      .   S
    Zr70   O98       3.06960  1_655   S
    N17    O98       4.06369  1_545   S
    Zr70   O99       3.23758  1_655   S
    N0     O99       4.78863  1_554   S
    Zr70   O100      3.06471      .   S
    N2     O100      4.35248      .   S
    Zr70   O101      2.90042  1_566   S
    N2     O101      4.56954      .   S
    Zr70   O102      2.29239  1_666   S
    N64    O102      2.21847      .   S
    Zr70   O103      2.03196  1_656   S
    N30    O103      2.39104      .   S
    Zr70   O104      2.33562  1_665   S
    N0     O104      4.51259  1_554   S
    Zr70   O105      1.88501      .   S
    N62    O105      1.89175      .   S
    Zr70   O106      2.61829  1_565   S
    N0     O106      4.22506  1_454   S
    Zr70   O107      2.87554  1_565   S
    N0     O107      3.99715  1_454   S
    Zr70   O108      2.79579  1_565   S
    N0     O108      4.04752  1_454   S
    Zr70   O109      2.23336  1_666   S
    N64    O109      2.27583      .   S
    Zr70   O110      2.19846  1_656   S
    N30    O110      2.24325      .   S
    Zr70   O111      2.13421  1_666   S
    N38    O111      2.09819      .   S
    Zr70   O112      2.07362  1_666   S
    N38    O112      2.17665      .   S
    Zr70   O113      2.18206  1_666   S
    N38    O113      2.03919      .   S
    Zr70   O114      2.01630      .   S
    N59    O114      2.22087      .   S
    Zr70   O115      1.88584      .   S
    N62    O115      1.91022      .   S
    Zr70   O116      2.00142  1_666   S
    N38    O116      2.38234      .   S
    Zr70   O117      2.14772  1_666   S
    N63    O117      2.23945      .   S
    Zr70   O118      2.16656  1_666   S
    N64    O118      2.35688      .   S
    Zr70   O119      2.21279  1_666   S
    N38    O119      2.04031      .   S
    Zr70   O120      3.31547  1_655   S
    N0     O120      4.72604  1_554   S
    Zr121  O122      1.48994      .   S
    N15    O122      3.23583  1_445   S
    Zr121  O123      1.61703      .   S
    N15    O123      3.10952  1_445   S
    Zr124  O125      0.82503      .   S
    N45    O125      1.10993      .   S
