# CIF file generated by openbabel 2.4.90, see http://openbabel.sf.net
data_I
_chemical_name_common ''
_cell_length_a 11.6884
_cell_length_b 5.5643
_cell_length_c 22.8159
_cell_angle_alpha 90
_cell_angle_beta 100.691
_cell_angle_gamma 90
_space_group_name_H-M_alt 'P 1'
_space_group_name_Hall 'P 1'
loop_
    _symmetry_equiv_pos_as_xyz
    x,y,z
loop_
    _atom_site_label
    _atom_site_type_symbol
    _atom_site_fract_x
    _atom_site_fract_y
    _atom_site_fract_z
    _atom_site_occupancy
    Zr0     Zr   0.86258   0.75633   0.27818   1.000
    Zr1     Zr   0.63742   0.25633   0.22182   1.000
    Zr2     Zr   0.13742   0.24367   0.72182   1.000
    Zr3     Zr   0.36258   0.74367   0.77818   1.000
    N4      N    0.78071   0.13926   0.57669   1.000
    O5      O    0.92348   0.17914   0.62622   1.000
    N6      N    0.71929   0.63926   0.92331   1.000
    O7      O    0.57652   0.67914   0.87378   1.000
    N8      N    0.28071   0.36074   0.07669   1.000
    O9      O    0.42348   0.32086   0.12622   1.000
    N10     N    0.21929   0.86074   0.42331   1.000
    O11     O    0.07652   0.82086   0.37378   1.000
    C12     C    0.01620   0.77213   0.75366   1.000
    O13     O    0.92455   0.72928   0.80290   1.000
    O14     O    0.04569   0.94102   0.74566   1.000
    O15     O    0.05298   0.59228   0.74344   1.000
    C16     C    0.26597   0.22563   0.82724   1.000
    O17     O    0.28958   0.05459   0.81513   1.000
    O18     O    0.23329   0.17959   0.80104   1.000
    O19     O    0.27467   0.26922   0.90218   1.000
    O20     O    0.23241   0.27749   0.79634   1.000
    O21     O    0.28870   0.40249   0.81043   1.000
    C22     C    0.23403   0.72563   0.67276   1.000
    O23     O    0.22533   0.76922   0.59782   1.000
    O24     O    0.21130   0.90249   0.68957   1.000
    O25     O    0.26759   0.77749   0.70366   1.000
    O26     O    0.21042   0.55459   0.68487   1.000
    O27     O    0.26671   0.67959   0.69896   1.000
    C28     C    0.48380   0.27213   0.74634   1.000
    O29     O    0.45431   0.44102   0.75435   1.000
    O30     O    0.44702   0.09228   0.75656   1.000
    O31     O    0.57545   0.22928   0.69710   1.000
    C32     C    0.73403   0.77437   0.17276   1.000
    O33     O    0.76671   0.82041   0.19896   1.000
    O34     O    0.71042   0.94541   0.18487   1.000
    O35     O    0.76759   0.72251   0.20366   1.000
    O36     O    0.71130   0.59751   0.18957   1.000
    O37     O    0.72533   0.73078   0.09782   1.000
    C38     C    0.51620   0.72787   0.25366   1.000
    O39     O    0.55298   0.90772   0.24344   1.000
    O40     O    0.54569   0.55898   0.24566   1.000
    O41     O    0.42455   0.77072   0.30290   1.000
    C42     C    0.98380   0.22787   0.24634   1.000
    O43     O    0.95431   0.05898   0.25435   1.000
    O44     O    0.07545   0.27072   0.19710   1.000
    O45     O    0.94702   0.40772   0.25656   1.000
    C46     C    0.76597   0.27437   0.32724   1.000
    O47     O    0.77467   0.23078   0.40218   1.000
    O48     O    0.78870   0.09751   0.31043   1.000
    O49     O    0.73241   0.22251   0.29634   1.000
    O50     O    0.78958   0.44541   0.31513   1.000
    O51     O    0.73329   0.32041   0.30104   1.000
loop_
    _geom_bond_atom_site_label_1
    _geom_bond_atom_site_label_2
    _geom_bond_distance
    _geom_bond_site_symmetry_2
    _ccdc_geom_bond_type
    N4     O5        1.84700      .   S
    Zr2    O5        3.01925  1_455   S
    N6     O7        1.84700      .   S
    Zr3    O7        3.01925      .   S
    N8     O9        1.84700      .   S
    Zr1    O9        3.01925      .   S
    N10    O11       1.84700      .   S
    Zr0    O11       3.01925  1_655   S
    C12    O13       1.70669  1_455   S
    N6     O13       4.00009      .   S
    C12    O14       1.02898      .   S
    Zr2    O14       2.12072  1_545   S
    C12    O15       1.13043      .   S
    Zr2    O15       2.27173      .   S
    C16    O17       1.04232      .   S
    Zr3    O17       2.16771  1_565   S
    C16    O18       0.69570      .   S
    Zr2    O18       1.97446      .   S
    C16    O19       1.71134      .   S
    N8     O19       4.00151  1_554   S
    C16    O20       0.79458      .   S
    Zr2    O20       1.85980      .   S
    C16    O21       1.10632      .   S
    Zr3    O21       2.26426      .   S
    C22    O23       1.71134      .   S
    N10    O23       4.00151      .   S
    C22    O24       1.10632      .   S
    Zr2    O24       2.26426  1_545   S
    C22    O25       0.79458      .   S
    Zr3    O25       1.85980      .   S
    C22    O26       1.04232      .   S
    Zr2    O26       2.16771      .   S
    C22    O27       0.69570      .   S
    Zr3    O27       1.97446      .   S
    C28    O29       1.02898      .   S
    Zr3    O29       2.12072      .   S
    C28    O30       1.13043      .   S
    Zr3    O30       2.27173  1_565   S
    C28    O31       1.70669      .   S
    N4     O31       4.00009      .   S
    C32    O33       0.69570      .   S
    Zr0    O33       1.97446      .   S
    C32    O34       1.04232      .   S
    Zr1    O34       2.16771  1_545   S
    C32    O35       0.79458      .   S
    Zr0    O35       1.85980      .   S
    C32    O36       1.10632      .   S
    Zr1    O36       2.26426      .   S
    C32    O37       1.71134      .   S
    N6     O37       4.00151  1_556   S
    C38    O39       1.13043      .   S
    Zr1    O39       2.27173  1_545   S
    C38    O40       1.02898      .   S
    Zr1    O40       2.12072      .   S
    C38    O41       1.70669      .   S
    N10    O41       4.00009      .   S
    C42    O43       1.02898      .   S
    Zr0    O43       2.12072  1_565   S
    C42    O44       1.70669  1_655   S
    N8     O44       4.00009      .   S
    C42    O45       1.13043      .   S
    Zr0    O45       2.27173      .   S
    C46    O47       1.71134      .   S
    N4     O47       4.00151      .   S
    C46    O48       1.10632      .   S
    Zr0    O48       2.26426  1_565   S
    C46    O49       0.79458      .   S
    Zr1    O49       1.85980      .   S
    C46    O50       1.04232      .   S
    Zr0    O50       2.16771      .   S
    C46    O51       0.69570      .   S
    Zr1    O51       1.97446      .   S
