# CIF file generated by openbabel 2.4.90, see http://openbabel.sf.net
data_I
_chemical_name_common ''
_cell_length_a 14.76
_cell_length_b 14.768
_cell_length_c 14.7681
_cell_angle_alpha 119.862
_cell_angle_beta 119.897
_cell_angle_gamma 90.143
_space_group_name_H-M_alt 'P 1'
_space_group_name_Hall 'P 1'
loop_
    _symmetry_equiv_pos_as_xyz
    x,y,z
loop_
    _atom_site_label
    _atom_site_type_symbol
    _atom_site_fract_x
    _atom_site_fract_y
    _atom_site_fract_z
    _atom_site_occupancy
    Zr0     Zr   0.10953   0.12167   0.98732   1.000
    Zr1     Zr   0.87102   0.88213   0.74782   1.000
    Zr2     Zr   0.87258   0.11833   0.99071   1.000
    Zr3     Zr   0.11437   0.11753   0.22665   1.000
    Zr4     Zr   0.11279   0.88109   0.98312   1.000
    Zr5     Zr   0.87625   0.87842   0.98790   1.000
    Zr6     Zr   0.53260   0.02049   0.75924   1.000
    Zr7     Zr   0.99758   0.96010   0.94932   1.000
    Zr8     Zr   0.78104   0.10166   0.34449   1.000
    Zr9     Zr   0.97039   0.89608   0.72029   1.000
    Zr10    Zr   0.70288   0.81056   0.38102   1.000
    Zr11    Zr   0.96078   0.90042   0.97431   1.000
    Zr12    Zr   0.89454   0.09613   0.80162   1.000
    Zr13    Zr   0.27503   0.09536   0.17283   1.000
    Zr14    Zr   0.90032   0.71810   0.79734   1.000
    Zr15    Zr   0.80257   0.02387   0.82193   1.000
    Zr16    Zr   0.80582   0.11424   0.26326   1.000
    Zr17    Zr   0.79357   0.08882   0.33134   1.000
    Zr18    Zr   0.02070   0.86428   0.08660   1.000
    Zr19    Zr   0.71961   0.98271   0.84851   1.000
    Zr20    Zr   0.85171   0.84583   0.82281   1.000
    Zr21    Zr   0.97406   0.97124   0.89668   1.000
    Zr22    Zr   0.68081   0.99614   0.68670   1.000
    Zr23    Zr   0.29161   0.00063   0.97646   1.000
    Zr24    Zr   0.00050   0.69733   0.99050   1.000
    Zr25    Zr   0.99341   0.70173   0.67748   1.000
    Zr26    Zr   0.51363   0.09953   0.73178   1.000
    Zr27    Zr   0.70112   0.14497   0.31405   1.000
    Zr28    Zr   0.57768   0.66286   0.35998   1.000
    Zr29    Zr   0.94263   0.80205   0.91691   1.000
    Zr30    Zr   0.09501   0.90029   0.91361   1.000
    Zr31    Zr   0.85000   0.24341   0.07419   1.000
    Zr32    Zr   0.26277   0.11815   0.39174   1.000
    Zr33    Zr   0.51821   0.01889   0.78727   1.000
    Zr34    Zr   0.13046   0.80357   0.03770   1.000
    Zr35    Zr   0.76527   0.88639   0.43547   1.000
    Zr36    Zr   0.04201   0.14912   0.08852   1.000
    Zr37    Zr   0.04068   0.95225   0.88625   1.000
    Zr38    Zr   0.04480   0.94908   0.08540   1.000
    Zr39    Zr   0.72229   0.92098   0.64840   1.000
    Zr40    Zr   0.91437   0.26630   0.99563   1.000
    Zr41    Zr   0.25370   0.92284   0.97724   1.000
    Zr42    Zr   0.07447   0.73712   0.98657   1.000
    Zr43    Zr   0.25833   0.07231   0.32612   1.000
    Zr44    Zr   0.07146   0.74005   0.79345   1.000
    Zr45    Zr   0.25282   0.26804   0.17246   1.000
    Zr46    Zr   0.91659   0.74259   0.64339   1.000
    Zr47    Zr   0.92252   0.73569   0.99027   1.000
    Zr48    Zr   0.72244   0.07324   0.80361   1.000
    Zr49    Zr   0.25082   0.07719   0.97810   1.000
    Zr50    Zr   0.92247   0.06868   0.85451   1.000
    Zr51    Zr   0.19469   0.06794   0.11983   1.000
    Zr52    Zr   0.92636   0.79837   0.85078   1.000
    Zr53    Zr   0.84360   0.94945   0.88927   1.000
    Zr54    Zr   0.21332   0.16325   0.33043   1.000
    Zr55    Zr   0.30464   0.28626   0.15184   1.000
    Zr56    Zr   0.77836   0.65045   0.26247   1.000
    Zr57    Zr   0.11286   0.71365   0.08487   1.000
    Zr58    Zr   0.76944   0.05780   0.33739   1.000
    Zr59    Zr   0.81996   0.20583   0.93904   1.000
    O60     O    0.12166   0.75861   0.06129   1.000
    O61     O    0.12163   0.84233   0.01041   1.000
    O62     O    0.10247   0.77034   0.01214   1.000
    O63     O    0.83498   0.22462   0.00662   1.000
    O64     O    0.86129   0.18087   0.03245   1.000
    O65     O    0.03275   0.90668   0.08600   1.000
    O66     O    0.00279   0.92475   0.02985   1.000
    O67     O    0.07577   0.13539   0.03792   1.000
    O68     O    0.23486   0.08165   0.14633   1.000
    O69     O    0.27873   0.27715   0.16215   1.000
    O70     O    0.16384   0.14039   0.27854   1.000
    O71     O    0.74062   0.73051   0.32175   1.000
    O72     O    0.79343   0.10795   0.30388   1.000
    O73     O    0.74108   0.12332   0.32927   1.000
    O74     O    0.77524   0.07973   0.34094   1.000
    O75     O    0.64028   0.73671   0.37050   1.000
    O76     O    0.73408   0.84847   0.40825   1.000
    O77     O    0.95500   0.72216   0.66043   1.000
    O78     O    0.03244   0.72089   0.73546   1.000
    O79     O    0.70162   0.03469   0.74515   1.000
    O80     O    0.92070   0.88910   0.73406   1.000
    O81     O    0.52312   0.06001   0.74551   1.000
    O82     O    0.52541   0.01969   0.77326   1.000
    O83     O    0.91334   0.75823   0.82406   1.000
    O84     O    0.90850   0.08241   0.82806   1.000
    O85     O    0.76251   0.04856   0.81277   1.000
    O86     O    0.79609   0.05052   0.91961   1.000
    O87     O    0.93449   0.80021   0.88384   1.000
    O88     O    0.06785   0.92627   0.89993   1.000
    O89     O    0.01913   0.95617   0.91778   1.000
    O90     O    0.85809   0.03389   0.93999   1.000
    O91     O    0.98582   0.96567   0.92300   1.000
    O92     O    0.10390   0.89069   0.94836   1.000
    O93     O    0.95170   0.85123   0.94561   1.000
    O94     O    0.86717   0.23607   0.96734   1.000
    O95     O    0.97918   0.93026   0.96181   1.000
    O96     O    0.91852   0.88942   0.98110   1.000
    O97     O    0.27265   0.96173   0.97685   1.000
    O98     O    0.27122   0.03891   0.97728   1.000
    O99     O    0.03749   0.71722   0.98853   1.000
    O100    O    0.96151   0.71651   0.99038   1.000
    O101    O    0.95729   0.13372   0.03961   1.000
    O102    O    0.07819   0.13332   0.15758   1.000
    O103    O    0.01980   0.05461   0.01892   1.000
    O104    O    0.07510   0.03696   0.93678   1.000
    O105    O    0.95585   0.91719   0.81703   1.000
    O106    O    0.07674   0.91667   0.93468   1.000
    O107    O    0.00553   0.92416   0.80327   1.000
    O108    O    0.00073   0.92633   0.93028   1.000
    O109    O    0.00737   0.96174   0.89147   1.000
    O110    O    0.07958   0.03330   0.15602   1.000
    O111    O    0.07880   0.91508   0.03426   1.000
    O112    O    0.96052   0.91375   0.03665   1.000
    O113    O    0.02119   0.95459   0.01736   1.000
    O114    O    0.79666   0.90155   0.69811   1.000
    O115    O    0.70155   0.95856   0.66755   1.000
    O116    O    0.89347   0.19231   0.99317   1.000
    O117    O    0.18325   0.90196   0.98018   1.000
    O118    O    0.09363   0.80910   0.98484   1.000
    O119    O    0.09367   0.72539   0.03572   1.000
    O120    O    0.18635   0.09492   0.27638   1.000
    O121    O    0.26055   0.09523   0.35893   1.000
    O122    O    0.23583   0.11778   0.32828   1.000
    O123    O    0.09213   0.81057   0.88828   1.000
    O124    O    0.18118   0.19485   0.07989   1.000
    O125    O    0.89380   0.81236   0.69560   1.000
    O126    O    0.94349   0.81933   0.68184   1.000
    O127    O    0.89938   0.80705   0.98908   1.000
    O128    O    0.94165   0.81805   0.98229   1.000
    O129    O    0.79751   0.09578   0.89716   1.000
    O130    O    0.62752   0.04687   0.78142   1.000
    O131    O    0.77120   0.13954   0.87133   1.000
    O132    O    0.18018   0.09943   0.98271   1.000
    O133    O    0.01600   0.09518   0.92092   1.000
    O134    O    0.89674   0.97540   0.80116   1.000
    O135    O    0.89753   0.09351   0.92261   1.000
    O136    O    0.96003   0.01439   0.90191   1.000
    O137    O    0.94643   0.98238   0.78740   1.000
    O138    O    0.15211   0.09481   0.05357   1.000
    O139    O    0.15453   0.09273   0.17324   1.000
    O140    O    0.15374   0.97451   0.05147   1.000
    O141    O    0.09614   0.01402   0.03457   1.000
    O142    O    0.89869   0.84025   0.79930   1.000
    O143    O    0.01958   0.83973   0.91695   1.000
    O144    O    0.90130   0.83839   0.91934   1.000
    O145    O    0.96197   0.87923   0.90005   1.000
    O146    O    0.94357   0.84939   0.91254   1.000
    O147    O    0.88904   0.82210   0.83679   1.000
    O148    O    0.85731   0.91579   0.81854   1.000
    O149    O    0.85992   0.91393   0.93858   1.000
    O150    O    0.92059   0.95477   0.91929   1.000
    O151    O    0.90219   0.92493   0.93179   1.000
    O152    O    0.84766   0.89764   0.85604   1.000
    O153    O    0.23804   0.14070   0.36109   1.000
    O154    O    0.20708   0.20396   0.06958   1.000
    O155    O    0.78151   0.07331   0.33437   1.000
    O156    O    0.73528   0.10138   0.32572   1.000
    O157    O    0.84627   0.16208   0.96488   1.000
    N158    N    0.01664   0.47079   0.02526   1.000
    O159    O    0.98465   0.37914   0.01074   1.000
    O160    O    0.96984   0.39448   0.02741   1.000
    O161    O    0.05194   0.58177   0.05113   1.000
    O162    O    0.02384   0.57769   0.02754   1.000
    O163    O    0.05273   0.33318   0.00831   1.000
    O164    O    0.02189   0.32869   0.04139   1.000
    O165    O    0.03877   0.32182   0.01609   1.000
    O166    O    0.98998   0.35798   0.01817   1.000
    O167    O    0.97953   0.32099   0.01694   1.000
    N168    N    0.68582   0.36590   0.88525   1.000
    N169    N    0.95988   0.44731   0.45496   1.000
    O170    O    0.97620   0.54925   0.54052   1.000
    O171    O    0.02705   0.31901   0.36695   1.000
    O172    O    0.92233   0.35083   0.29091   1.000
    O173    O    0.92797   0.31956   0.27004   1.000
    N174    N    0.32116   0.49145   0.24127   1.000
    N175    N    0.35366   0.40738   0.16695   1.000
    N176    N    0.51958   0.76416   0.87037   1.000
    N177    N    0.43928   0.44419   0.48738   1.000
    N178    N    0.53332   0.04975   0.77040   1.000
    N179    N    0.37569   0.55238   0.25412   1.000
    N180    N    0.26481   0.50497   0.60316   1.000
    N181    N    0.48995   0.99451   0.49722   1.000
    O182    O    0.49915   0.03333   0.58349   1.000
    N183    N    0.43616   0.11376   0.71772   1.000
    O184    O    0.45553   0.11020   0.72123   1.000
    N185    N    0.58136   0.17950   0.80582   1.000
    O186    O    0.56443   0.15951   0.78731   1.000
    N187    N    0.19426   0.13396   0.64376   1.000
    N188    N    0.68443   0.71457   0.69201   1.000
    O189    O    0.74349   0.76116   0.79373   1.000
    O190    O    0.74105   0.76199   0.69459   1.000
    N191    N    0.00564   0.03543   0.51833   1.000
    O192    O    0.04748   0.06839   0.70672   1.000
    O193    O    0.01269   0.01200   0.63997   1.000
    O194    O    0.95257   0.96591   0.29947   1.000
    O195    O    0.05050   0.06421   0.39789   1.000
    O196    O    0.97431   0.97345   0.60085   1.000
    O197    O    0.94947   0.96996   0.60773   1.000
    O198    O    0.89215   0.93263   0.45772   1.000
    O199    O    0.90775   0.95159   0.47134   1.000
    N200    N    0.87505   0.06218   0.17278   1.000
    O201    O    0.88757   0.07675   0.11504   1.000
    O202    O    0.94802   0.07655   0.17402   1.000
    O203    O    0.88849   0.01677   0.11434   1.000
    O204    O    0.90962   0.02227   0.11094   1.000
    N205    N    0.48441   0.04991   0.99946   1.000
    O206    O    0.41319   0.02550   0.98777   1.000
    N207    N    0.58500   0.59683   0.58709   1.000
    N208    N    0.45175   0.87746   0.21900   1.000
    N209    N    0.67271   0.49806   0.65408   1.000
    N210    N    0.36064   0.51435   0.73487   1.000
    N211    N    0.34309   0.53570   0.95844   1.000
    N212    N    0.65316   0.53765   0.77848   1.000
    N213    N    0.87719   0.79349   0.24041   1.000
    N214    N    0.94596   0.75181   0.18968   1.000
    N215    N    0.45163   0.27511   0.21866   1.000
    N216    N    0.09041   0.18312   0.53844   1.000
    N217    N    0.51260   0.58596   0.45486   1.000
    N218    N    0.47489   0.39974   0.98370   1.000
    N219    N    0.26080   0.93365   0.21871   1.000
    O220    O    0.26896   0.98333   0.26251   1.000
    O221    O    0.22246   0.91682   0.14743   1.000
    O222    O    0.22688   0.89744   0.16107   1.000
    N223    N    0.51021   0.61414   0.04127   1.000
    N224    N    0.36649   0.63882   0.30006   1.000
    N225    N    0.34097   0.26688   0.68070   1.000
    N226    N    0.52034   0.22184   0.70812   1.000
    N227    N    0.22576   0.21181   0.92888   1.000
    N228    N    0.24476   0.38566   0.63649   1.000
    N229    N    0.40920   0.68944   0.94822   1.000
    N230    N    0.23856   0.27813   0.20128   1.000
    O231    O    0.22935   0.26673   0.15669   1.000
    O232    O    0.25546   0.28346   0.21609   1.000
    O233    O    0.21160   0.23543   0.23917   1.000
    O234    O    0.23633   0.24686   0.26512   1.000
    O235    O    0.23749   0.27918   0.17789   1.000
    O236    O    0.25045   0.28374   0.17273   1.000
    O237    O    0.20167   0.24259   0.13160   1.000
    N238    N    0.90933   0.75059   0.52635   1.000
    N239    N    0.27597   0.84649   0.24692   1.000
    N240    N    0.67349   0.52319   0.39247   1.000
    N241    N    0.56425   0.54648   0.18329   1.000
    N242    N    0.39353   0.52281   0.79678   1.000
    N243    N    0.65663   0.40164   0.73561   1.000
    N244    N    0.77389   0.24798   0.36055   1.000
    O245    O    0.75570   0.22223   0.34892   1.000
    N246    N    0.78229   0.18646   0.61090   1.000
    N247    N    0.53866   0.40160   0.62274   1.000
    N248    N    0.34382   0.40890   0.80312   1.000
    N249    N    0.60273   0.26813   0.90436   1.000
    N250    N    0.04568   0.38999   0.78795   1.000
    N251    N    0.77187   0.27954   0.65741   1.000
    N252    N    0.71361   0.99328   0.98412   1.000
    O253    O    0.75787   0.94542   0.98511   1.000
    O254    O    0.75675   0.04418   0.98642   1.000
    O255    O    0.67176   0.01972   0.92855   1.000
    N256    N    0.11947   0.79384   0.37356   1.000
    N257    N    0.39876   0.84787   0.38785   1.000
    N258    N    0.16193   0.90718   0.66643   1.000
    N259    N    0.59198   0.34936   0.20495   1.000
    N260    N    0.41708   0.11588   0.20135   1.000
    N261    N    0.16885   0.62365   0.40598   1.000
    N262    N    0.84584   0.64625   0.61851   1.000
    O263    O    0.86353   0.67033   0.62473   1.000
    N264    N    0.30013   0.32898   0.95222   1.000
    N265    N    0.60378   0.57067   0.07070   1.000
    N266    N    0.72825   0.97157   0.68809   1.000
    O267    O    0.72676   0.95892   0.67817   1.000
    O268    O    0.71639   0.97771   0.68774   1.000
    O269    O    0.72680   0.99699   0.71697   1.000
    N270    N    0.19797   0.18673   0.36683   1.000
    O271    O    0.20181   0.18086   0.35773   1.000
    N272    N    0.23343   0.05109   0.33740   1.000
    O273    O    0.23966   0.05640   0.33458   1.000
    O274    O    0.24077   0.06786   0.35099   1.000
    O275    O    0.22840   0.07913   0.33566   1.000
    N276    N    0.30421   0.64449   0.98977   1.000
    N277    N    0.38875   0.48644   0.16751   1.000
    N278    N    0.63242   0.75594   0.07562   1.000
    N279    N    0.92092   0.37636   0.74276   1.000
    N280    N    0.89527   0.54553   0.72633   1.000
loop_
    _geom_bond_atom_site_label_1
    _geom_bond_atom_site_label_2
    _geom_bond_distance
    _geom_bond_site_symmetry_2
    _ccdc_geom_bond_type
    Zr34   O60       0.92409      .   S
    Zr57   O60       0.92409      .   S
    Zr34   O61       0.82754      .   S
    Zr4    O61       0.82754  1_556   S
    Zr34   O62       0.46155      .   S
    Zr42   O62       0.46155  1_556   S
    Zr31   O63       0.79080      .   S
    Zr59   O63       0.79080  1_556   S
    Zr31   O64       0.89272      .   S
    Zr2    O64       0.89272  1_556   S
    Zr38   O65       0.65598      .   S
    Zr18   O65       0.65598      .   S
    Zr38   O66       0.62032      .   S
    Zr11   O66       0.62032  1_656   S
    Zr36   O67       1.03376      .   S
    Zr0    O67       1.03376  1_556   S
    Zr51   O68       0.48464      .   S
    Zr13   O68       0.48464      .   S
    Zr55   O69       0.51549      .   S
    Zr45   O69       0.51549      .   S
    Zr3    O70       0.64636      .   S
    Zr54   O70       0.64636      .   S
    Zr56   O71       1.39038      .   S
    Zr10   O71       1.39038      .   S
    Zr16   O72       0.75269      .   S
    Zr8    O72       0.75269      .   S
    Zr27   O73       0.66410      .   S
    Zr8    O73       0.66410      .   S
    Zr58   O74       0.30574      .   S
    Zr8    O74       0.30574      .   S
    Zr28   O75       1.32302      .   S
    Zr10   O75       1.32302      .   S
    Zr10   O76       0.52641      .   S
    Zr35   O76       0.52641      .   S
    Zr46   O77       0.64033      .   S
    Zr25   O77       0.64033      .   S
    Zr25   O78       0.64135  1_655   S
    Zr44   O78       0.64135      .   S
    Zr22   O79       0.63957  1_565   S
    Zr48   O79       0.63957      .   S
    Zr9    O80       0.87105      .   S
    Zr1    O80       0.87105      .   S
    Zr26   O81       0.70089      .   S
    Zr6    O81       0.70089      .   S
    Zr6    O82       0.28042      .   S
    Zr33   O82       0.28042      .   S
    Zr14   O83       0.48464      .   S
    Zr52   O83       0.48464      .   S
    Zr12   O84       0.48465      .   S
    Zr50   O84       0.48465      .   S
    Zr48   O85       0.68654      .   S
    Zr15   O85       0.68654      .   S
    Zr19   O86       1.07023  1_565   S
    Zr2    O86       1.07023      .   S
    Zr52   O87       0.42651      .   S
    Zr29   O87       0.42651      .   S
    Zr37   O88       0.58823      .   S
    Zr30   O88       0.58823      .   S
    Zr37   O89       0.66503      .   S
    Zr7    O89       0.66503  1_655   S
    Zr53   O90       1.03472  1_565   S
    Zr2    O90       1.03472      .   S
    Zr21   O91       0.39064      .   S
    Zr7    O91       0.39064      .   S
    Zr30   O92       0.55335      .   S
    Zr4    O92       0.55335      .   S
    Zr29   O93       0.60125      .   S
    Zr11   O93       0.60125      .   S
    Zr59   O94       0.61794      .   S
    Zr40   O94       0.61794      .   S
    Zr7    O95       0.65752      .   S
    Zr11   O95       0.65752      .   S
    Zr11   O96       0.70978      .   S
    Zr5    O96       0.70978      .   S
    Zr23   O97       0.64214  1_545   S
    Zr41   O97       0.64214      .   S
    Zr23   O98       0.63876      .   S
    Zr49   O98       0.63876      .   S
    Zr42   O99       0.63926      .   S
    Zr24   O99       0.63926      .   S
    Zr47   O100      0.64167      .   S
    Zr24   O100      0.64167  1_455   S
    Zr36   O101      1.03518  1_455   S
    Zr2    O101      1.03518  1_556   S
    Zr36   O102      1.03656      .   S
    Zr3    O102      1.03656      .   S
    Zr36   O103      1.15985      .   S
    Zr7    O103      1.15985  1_666   S
    Zr37   O104      1.03403  1_565   S
    Zr0    O104      1.03403      .   S
    Zr37   O105      1.03659  1_455   S
    Zr1    O105      1.03659      .   S
    Zr37   O106      1.03303      .   S
    Zr4    O106      1.03303      .   S
    Zr37   O107      0.89547      .   S
    Zr9    O107      0.89547  1_655   S
    Zr37   O108      1.24332      .   S
    Zr11   O108      1.24332  1_655   S
    Zr37   O109      0.54284      .   S
    Zr21   O109      0.54284  1_655   S
    Zr38   O110      1.03424  1_565   S
    Zr3    O110      1.03424      .   S
    Zr38   O111      1.03714      .   S
    Zr4    O111      1.03714  1_556   S
    Zr38   O112      1.03333  1_455   S
    Zr5    O112      1.03333  1_556   S
    Zr38   O113      0.93286      .   S
    Zr7    O113      0.93286  1_656   S
    Zr39   O114      1.11086      .   S
    Zr1    O114      1.11086      .   S
    Zr39   O115      0.64230      .   S
    Zr22   O115      0.64230      .   S
    Zr40   O116      1.11259      .   S
    Zr2    O116      1.11259      .   S
    Zr41   O117      1.11134      .   S
    Zr4    O117      1.11134      .   S
    Zr42   O118      1.11508      .   S
    Zr4    O118      1.11508      .   S
    Zr42   O119      0.74676  1_556   S
    Zr57   O119      0.74676      .   S
    Zr43   O120      1.11705      .   S
    Zr3    O120      1.11705      .   S
    Zr43   O121      0.41380      .   S
    Zr32   O121      0.41380      .   S
    Zr43   O122      0.74340      .   S
    Zr54   O122      0.74340      .   S
    Zr44   O123      1.12214      .   S
    Zr4    O123      1.12214      .   S
    Zr45   O124      1.11224      .   S
    Zr0    O124      1.11224  1_556   S
    Zr46   O125      1.11284      .   S
    Zr1    O125      1.11284      .   S
    Zr46   O126      0.94692      .   S
    Zr9    O126      0.94692      .   S
    Zr47   O127      1.11439      .   S
    Zr5    O127      1.11439      .   S
    Zr47   O128      1.32188      .   S
    Zr11   O128      1.32188      .   S
    Zr48   O129      1.12309      .   S
    Zr2    O129      1.12309      .   S
    Zr48   O130      1.27846      .   S
    Zr6    O130      1.27846      .   S
    Zr48   O131      0.88351      .   S
    Zr59   O131      0.88351      .   S
    Zr49   O132      1.11803      .   S
    Zr0    O132      1.11803      .   S
    Zr50   O133      1.13410  1_655   S
    Zr0    O133      1.13410      .   S
    Zr50   O134      1.13173  1_545   S
    Zr1    O134      1.13173      .   S
    Zr50   O135      1.13316      .   S
    Zr2    O135      1.13316      .   S
    Zr50   O136      1.27064      .   S
    Zr7    O136      1.27064  1_565   S
    Zr50   O137      1.35107  1_545   S
    Zr9    O137      1.35107      .   S
    Zr51   O138      1.13339      .   S
    Zr0    O138      1.13339  1_556   S
    Zr51   O139      1.13453      .   S
    Zr3    O139      1.13453      .   S
    Zr51   O140      1.13515  1_545   S
    Zr4    O140      1.13515  1_556   S
    Zr51   O141      1.22694      .   S
    Zr7    O141      1.22694  1_666   S
    Zr52   O142      1.13459      .   S
    Zr1    O142      1.13459      .   S
    Zr52   O143      1.13230  1_655   S
    Zr4    O143      1.13230      .   S
    Zr52   O144      1.13564      .   S
    Zr5    O144      1.13564      .   S
    Zr52   O145      0.99102      .   S
    Zr7    O145      0.99102      .   S
    Zr52   O146      0.74022      .   S
    Zr11   O146      0.74022      .   S
    Zr52   O147      0.65465      .   S
    Zr20   O147      0.65465      .   S
    Zr53   O148      1.03593      .   S
    Zr1    O148      1.03593      .   S
    Zr53   O149      1.03422      .   S
    Zr5    O149      1.03422      .   S
    Zr53   O150      0.97811      .   S
    Zr7    O150      0.97811      .   S
    Zr53   O151      0.97973      .   S
    Zr11   O151      0.97973      .   S
    Zr53   O152      0.69674      .   S
    Zr20   O152      0.69674      .   S
    Zr54   O153      0.65961      .   S
    Zr32   O153      0.65961      .   S
    Zr55   O154      1.34290      .   S
    Zr0    O154      1.34290  1_556   S
    Zr58   O155      0.32264      .   S
    Zr17   O155      0.32264      .   S
    Zr58   O156      0.85077      .   S
    Zr27   O156      0.85077      .   S
    Zr59   O157      0.90157      .   S
    Zr2    O157      0.90157      .   S
    N158   O159      1.30686  1_455   S
    Zr40   O159      1.81470  1_556   S
    N158   O160      1.34241  1_455   S
    Zr40   O160      1.78838  1_556   S
    N158   O161      1.50903      .   S
    Zr57   O161      1.85159      .   S
    N158   O162      1.56438      .   S
    Zr24   O162      2.07777  1_556   S
    N158   O163      2.02680      .   S
    Zr0    O163      3.14073  1_556   S
    N158   O164      2.22425      .   S
    Zr36   O164      3.03987      .   S
    N158   O165      2.17162      .   S
    Zr0    O165      3.03573  1_556   S
    N158   O166      1.65024  1_455   S
    Zr40   O166      1.53717  1_556   S
    N158   O167      2.20579  1_455   S
    Zr2    O167      3.13240  1_556   S
    N169   O170      1.31209      .   S
    Zr25   O170      2.04343      .   S
    N169   O171      2.25909  1_655   S
    Zr3    O171      3.36896      .   S
    N169   O172      1.85114      .   S
    Zr31   O172      2.33005      .   S
    N169   O173      2.19584      .   S
    Zr2    O173      3.30675  1_556   S
    N181   O182      1.03441  1_565   S
    Zr26   O182      1.78827      .   S
    N183   O184      0.27417      .   S
    Zr26   O184      0.82252      .   S
    N185   O186      0.27480      .   S
    Zr26   O186      0.82439      .   S
    N188   O189      1.07341      .   S
    Zr5    O189      2.12087      .   S
    N188   O190      1.06254      .   S
    Zr1    O190      2.12995      .   S
    N191   O192      2.30125      .   S
    Zr0    O192      3.40527      .   S
    N191   O193      1.94682      .   S
    Zr9    O193      2.73555  1_665   S
    N191   O194      2.50642  1_445   S
    Zr5    O194      3.60772  1_556   S
    N191   O195      2.38916      .   S
    Zr3    O195      3.50146      .   S
    N191   O196      2.05113  1_445   S
    Zr9    O196      2.55523      .   S
    N191   O197      2.39237  1_445   S
    Zr1    O197      3.51517      .   S
    N191   O198      1.74680  1_445   S
    Zr10   O198      2.66908      .   S
    N191   O199      1.49604  1_445   S
    Zr35   O199      2.00047      .   S
    N200   O201      1.07109      .   S
    Zr2    O201      2.12506  1_556   S
    N200   O202      1.08653      .   S
    Zr3    O202      2.14962  1_455   S
    N200   O203      0.91047      .   S
    Zr5    O203      1.88585  1_566   S
    N200   O204      1.17128      .   S
    Zr11   O204      2.40618  1_566   S
    N205   O206      1.00991      .   S
    Zr23   O206      1.73786      .   S
    N219   O220      0.64848      .   S
    Zr43   O220      1.24606  1_545   S
    N219   O221      0.79691      .   S
    Zr4    O221      1.89520  1_556   S
    N219   O222      0.61783      .   S
    Zr34   O222      1.46855      .   S
    N230   O231      0.52973      .   S
    Zr45   O231      0.29943      .   S
    N230   O232      0.21118      .   S
    Zr45   O232      0.54528      .   S
    N230   O233      1.20064      .   S
    Zr3    O233      2.12778      .   S
    N230   O234      1.25206      .   S
    Zr54   O234      2.02012      .   S
    N230   O235      0.34603      .   S
    Zr45   O235      0.29967      .   S
    N230   O236      0.56902      .   S
    Zr55   O236      0.99683      .   S
    N230   O237      0.73004      .   S
    Zr0    O237      1.69961  1_556   S
    N244   O245      0.36706      .   S
    Zr27   O245      1.10117      .   S
    N252   O253      0.96421      .   S
    Zr5    O253      2.00279      .   S
    N252   O254      0.96030  1_565   S
    Zr2    O254      1.98485      .   S
    N252   O255      1.01112  1_565   S
    Zr6    O255      2.31943      .   S
    N262   O263      0.38238      .   S
    Zr46   O263      1.14715      .   S
    N266   O267      0.16234      .   S
    Zr39   O267      0.48702      .   S
    N266   O268      0.19632      .   S
    Zr22   O268      0.58897      .   S
    N266   O269      0.41591      .   S
    Zr48   O269      1.24774  1_545   S
    N270   O271      0.15747      .   S
    Zr54   O271      0.47242      .   S
    N272   O273      0.15277      .   S
    Zr43   O273      0.45832      .   S
    N272   O274      0.20498      .   S
    Zr32   O274      0.61494      .   S
    N272   O275      0.43186      .   S
    Zr54   O275      1.29557      .   S
