# CIF file generated by openbabel 2.4.90, see http://openbabel.sf.net
data_I
_chemical_name_common ''
_cell_length_a 11.6884
_cell_length_b 5.5643
_cell_length_c 22.8159
_cell_angle_alpha 90
_cell_angle_beta 100.691
_cell_angle_gamma 90
_space_group_name_H-M_alt 'P 1'
_space_group_name_Hall 'P 1'
loop_
    _symmetry_equiv_pos_as_xyz
    x,y,z
loop_
    _atom_site_label
    _atom_site_type_symbol
    _atom_site_fract_x
    _atom_site_fract_y
    _atom_site_fract_z
    _atom_site_occupancy
    Mc0     Mc   0.50494   0.69438   0.87030   1.000
    Mc1     Mc   0.67602   0.66021   0.02905   1.000
    Mc2     Mc   0.80926   0.65916   0.82926   1.000
    Mc3     Mc   0.49506   0.30562   0.12970   1.000
    Mc4     Mc   0.32398   0.33979   0.97095   1.000
    Mc5     Mc   0.19074   0.34084   0.17074   1.000
    Mc6     Mc   0.99506   0.19438   0.62970   1.000
    Mc7     Mc   0.82398   0.16021   0.47095   1.000
    Mc8     Mc   0.69074   0.15916   0.67074   1.000
    Mc9     Mc   0.00494   0.80562   0.37030   1.000
    Mc10    Mc   0.30926   0.84084   0.32926   1.000
    Mc11    Mc   0.17602   0.83979   0.52905   1.000
