# CIF file generated by openbabel 2.4.90, see http://openbabel.sf.net
data_I
_chemical_name_common ''
_cell_length_a 11.6884
_cell_length_b 5.5643
_cell_length_c 22.8159
_cell_angle_alpha 90
_cell_angle_beta 100.691
_cell_angle_gamma 90
_space_group_name_H-M_alt 'P 1'
_space_group_name_Hall 'P 1'
loop_
    _symmetry_equiv_pos_as_xyz
    x,y,z
loop_
    _atom_site_label
    _atom_site_type_symbol
    _atom_site_fract_x
    _atom_site_fract_y
    _atom_site_fract_z
    _atom_site_occupancy
    O0      O    0.00494   0.80562   0.37030   1.000
    C1      C    0.14670   0.89090   0.46929   1.000
    C2      C    0.20595   0.06200   0.50775   1.000
    H3      H    0.22780   0.21110   0.49280   1.000
    C4      C    0.23276   0.01220   0.56837   1.000
    H5      H    0.27220   0.12830   0.59530   1.000
    C6      C    0.20170   0.79140   0.58960   1.000
    C7      C    0.14677   0.61880   0.55025   1.000
    H8      H    0.12870   0.46630   0.56490   1.000
    C9      C    0.11802   0.66700   0.48962   1.000
    H10     H    0.07960   0.54990   0.46260   1.000
    C11     C    0.21873   0.89080   0.35811   1.000
    C12     C    0.30779   0.05910   0.35955   1.000
    H13     H    0.30710   0.20510   0.38110   1.000
    C14     C    0.39763   0.00980   0.32897   1.000
    H15     H    0.45760   0.12450   0.32850   1.000
    C16     C    0.39952   0.79180   0.29902   1.000
    C17     C    0.31163   0.62320   0.29972   1.000
    H18     H    0.31460   0.47320   0.28010   1.000
    C19     C    0.21940   0.67210   0.32884   1.000
    H20     H    0.15860   0.55880   0.32870   1.000
    O21     O    0.49506   0.30562   0.12970   1.000
    C22     C    0.35330   0.39090   0.03071   1.000
    C23     C    0.29405   0.56200   0.99225   1.000
    H24     H    0.27220   0.71110   0.00720   1.000
    C25     C    0.26724   0.51220   0.93163   1.000
    H26     H    0.22780   0.62830   0.90470   1.000
    C27     C    0.29830   0.29140   0.91040   1.000
    C28     C    0.35323   0.11880   0.94975   1.000
    H29     H    0.37130   0.96630   0.93510   1.000
    C30     C    0.38198   0.16700   0.01038   1.000
    H31     H    0.42040   0.04990   0.03740   1.000
    C32     C    0.28127   0.39080   0.14189   1.000
    C33     C    0.19221   0.55910   0.14045   1.000
    H34     H    0.19290   0.70510   0.11890   1.000
    C35     C    0.10237   0.50980   0.17103   1.000
    H36     H    0.04240   0.62450   0.17150   1.000
    C37     C    0.10048   0.29180   0.20098   1.000
    C38     C    0.18837   0.12320   0.20028   1.000
    H39     H    0.18540   0.97320   0.21990   1.000
    C40     C    0.28060   0.17210   0.17116   1.000
    H41     H    0.34140   0.05880   0.17130   1.000
    O42     O    0.99506   0.19438   0.62970   1.000
    C43     C    0.85330   0.10910   0.53071   1.000
    C44     C    0.79405   0.93800   0.49225   1.000
    H45     H    0.77220   0.78890   0.50720   1.000
    C46     C    0.76724   0.98780   0.43163   1.000
    H47     H    0.72780   0.87170   0.40470   1.000
    C48     C    0.79830   0.20860   0.41040   1.000
    C49     C    0.85323   0.38120   0.44975   1.000
    H50     H    0.87130   0.53370   0.43510   1.000
    C51     C    0.88198   0.33300   0.51038   1.000
    H52     H    0.92040   0.45010   0.53740   1.000
    C53     C    0.78127   0.10920   0.64189   1.000
    C54     C    0.69221   0.94090   0.64045   1.000
    H55     H    0.69290   0.79490   0.61890   1.000
    C56     C    0.60237   0.99020   0.67103   1.000
    H57     H    0.54240   0.87550   0.67150   1.000
    C58     C    0.60048   0.20820   0.70098   1.000
    C59     C    0.68837   0.37680   0.70028   1.000
    H60     H    0.68540   0.52680   0.71990   1.000
    C61     C    0.78060   0.32790   0.67116   1.000
    H62     H    0.84140   0.44120   0.67130   1.000
    O63     O    0.50494   0.69438   0.87030   1.000
    C64     C    0.64670   0.60910   0.96929   1.000
    C65     C    0.70595   0.43800   0.00775   1.000
    H66     H    0.72780   0.28890   0.99280   1.000
    C67     C    0.73276   0.48780   0.06837   1.000
    H68     H    0.77220   0.37170   0.09530   1.000
    C69     C    0.70170   0.70860   0.08960   1.000
    C70     C    0.64677   0.88120   0.05025   1.000
    H71     H    0.62870   0.03370   0.06490   1.000
    C72     C    0.61802   0.83300   0.98962   1.000
    H73     H    0.57960   0.95010   0.96260   1.000
    C74     C    0.71873   0.60920   0.85811   1.000
    C75     C    0.80779   0.44090   0.85955   1.000
    H76     H    0.80710   0.29490   0.88110   1.000
    C77     C    0.89763   0.49020   0.82897   1.000
    H78     H    0.95760   0.37550   0.82850   1.000
    C79     C    0.89952   0.70820   0.79902   1.000
    C80     C    0.81163   0.87680   0.79972   1.000
    H81     H    0.81460   0.02680   0.78010   1.000
    C82     C    0.71940   0.82790   0.82884   1.000
    H83     H    0.65860   0.94120   0.82870   1.000
loop_
    _geom_bond_atom_site_label_1
    _geom_bond_atom_site_label_2
    _geom_bond_distance
    _geom_bond_site_symmetry_2
    _ccdc_geom_bond_type
    H24    C23       0.94984  1_554   S
    C65    C67       1.38822      .   S
    C65    C64       1.38944  1_554   S
    C65    H66       0.94984  1_554   S
    C30    C22       1.39189      .   S
    C30    H31       0.95056      .   S
    C30    C28       1.38780  1_554   S
    C22    C23       1.38944  1_554   S
    C70    H71       0.95004  1_565   S
    C70    C69       1.38808      .   S
    C70    C72       1.38780  1_554   S
    C67    C69       1.39324      .   S
    C67    H68       0.94989      .   S
    H34    C33       0.95040      .   S
    C33    C32       1.39606      .   S
    C33    C35       1.39161      .   S
    C32    C40       1.38884      .   S
    C35    H36       0.94951      .   S
    C35    C37       1.39443      .   S
    C40    H41       0.94955      .   S
    C40    C38       1.39403      .   S
    C38    C37       1.39348      .   S
    C38    H39       0.95078  1_545   S
    H18    C17       0.95078      .   S
    C16    C17       1.39348      .   S
    C16    C14       1.39443  1_565   S
    C17    C19       1.39403      .   S
    H15    C14       0.94951      .   S
    H20    C19       0.94955      .   S
    C19    C11       1.38884      .   S
    C14    C12       1.39161      .   S
    C11    C12       1.39606  1_565   S
    C12    H13       0.95040      .   S
    H47    C46       0.94989      .   S
    C48    C46       1.39324  1_545   S
    C48    C49       1.38808      .   S
    C46    C44       1.38822      .   S
    H50    C49       0.95004      .   S
    C49    C51       1.38780      .   S
    H10    C9        0.95056      .   S
    C1     C9        1.39189      .   S
    C1     C2        1.38944  1_565   S
    C9     C7        1.38780      .   S
    C44    H45       0.94984      .   S
    C44    C43       1.38944  1_565   S
    H3     C2        0.94984      .   S
    C2     C4        1.38822      .   S
    C51    C43       1.39189      .   S
    C51    H52       0.95056      .   S
    C7     H8        0.95004      .   S
    C7     C6        1.38808      .   S
    C4     C6        1.39324  1_545   S
    C4     H5        0.94989      .   S
    H55    C54       0.95040      .   S
    C54    C53       1.39606  1_565   S
    C54    C56       1.39161      .   S
    C53    C61       1.38884      .   S
    C56    H57       0.94951      .   S
    C56    C58       1.39443  1_565   S
    C61    H62       0.94955      .   S
    C61    C59       1.39403      .   S
    C59    C58       1.39348      .   S
    C59    H60       0.95078      .   S
    H81    C80       0.95078  1_545   S
    C79    C80       1.39348      .   S
    C79    C77       1.39443      .   S
    C80    C82       1.39403      .   S
    H78    C77       0.94951      .   S
    H83    C82       0.94955      .   S
    C82    C74       1.38884      .   S
    C77    C75       1.39161      .   S
    C74    C75       1.39606      .   S
    C75    H76       0.95040      .   S
    H26    C25       0.94989      .   S
    C27    C25       1.39324      .   S
    C27    C28       1.38808      .   S
    C25    C23       1.38822      .   S
    H29    C28       0.95004  1_565   S
    H73    C72       0.95056      .   S
    C64    C72       1.39189      .   S
