# CIF file generated by openbabel 2.4.90, see http://openbabel.sf.net
data_I
_chemical_name_common ''
_cell_length_a 71.5169
_cell_length_b 71.4927
_cell_length_c 71.6087
_cell_angle_alpha 89.8315
_cell_angle_beta 90.1248
_cell_angle_gamma 89.8689
_space_group_name_H-M_alt 'P 1'
_space_group_name_Hall 'P 1'
loop_
    _symmetry_equiv_pos_as_xyz
    x,y,z
loop_
    _atom_site_label
    _atom_site_type_symbol
    _atom_site_fract_x
    _atom_site_fract_y
    _atom_site_fract_z
    _atom_site_occupancy
    C0      C    0.10692   0.13845   0.25720   1.000
    C1      C    0.09768   0.13094   0.24176   1.000
    C2      C    0.10463   0.11495   0.23282   1.000
    C3      C    0.12101   0.10648   0.23982   1.000
    C4      C    0.13030   0.11404   0.25525   1.000
    C5      C    0.12332   0.13008   0.26416   1.000
    C6      C    0.09403   0.10726   0.21674   1.000
    C7      C    0.10163   0.09599   0.20387   1.000
    C8      C    0.09119   0.08829   0.18771   1.000
    C9      C    0.10144   0.08153   0.17246   1.000
    C10     C    0.09236   0.07368   0.15711   1.000
    C11     C    0.07277   0.07227   0.15669   1.000
    C12     C    0.06244   0.07905   0.17189   1.000
    C13     C    0.07153   0.08689   0.18732   1.000
    H14     H    0.10120   0.15090   0.26360   1.000
    H15     H    0.08505   0.13770   0.23673   1.000
    H16     H    0.12653   0.09377   0.23379   1.000
    H17     H    0.14271   0.10704   0.26041   1.000
    H18     H    0.07969   0.11183   0.21514   1.000
    H19     H    0.11641   0.09282   0.20459   1.000
    H20     H    0.11656   0.08236   0.17240   1.000
    H21     H    0.10069   0.06881   0.14548   1.000
    H22     H    0.04734   0.07790   0.17204   1.000
    H23     H    0.06310   0.09137   0.19899   1.000
    C24     C    0.14169   0.61406   0.75385   1.000
    C25     C    0.13436   0.60517   0.73817   1.000
    C26     C    0.11653   0.60977   0.73142   1.000
    C27     C    0.10627   0.62388   0.74056   1.000
    C28     C    0.11362   0.63279   0.75635   1.000
    C29     C    0.13138   0.62788   0.76326   1.000
    C30     C    0.10965   0.59983   0.71460   1.000
    C31     C    0.09164   0.59913   0.70935   1.000
    C32     C    0.08499   0.58876   0.69266   1.000
    C33     C    0.06586   0.58466   0.69115   1.000
    C34     C    0.05884   0.57547   0.67544   1.000
    C35     C    0.07083   0.57014   0.66088   1.000
    C36     C    0.08998   0.57408   0.66237   1.000
    C37     C    0.09699   0.58342   0.67800   1.000
    H38     H    0.15555   0.61005   0.75843   1.000
    H39     H    0.14270   0.59457   0.73129   1.000
    H40     H    0.09271   0.62832   0.73551   1.000
    H41     H    0.10532   0.64344   0.76315   1.000
    H42     H    0.11994   0.59193   0.70687   1.000
    H43     H    0.08111   0.60571   0.71795   1.000
    H44     H    0.05626   0.58866   0.70213   1.000
    H45     H    0.04400   0.57259   0.67462   1.000
    H46     H    0.09945   0.57053   0.65114   1.000
    H47     H    0.11170   0.58682   0.67814   1.000
    C48     C    0.60745   0.13501   0.76213   1.000
    C49     C    0.59812   0.12708   0.74702   1.000
    C50     C    0.60604   0.11223   0.73711   1.000
    C51     C    0.62354   0.10518   0.74289   1.000
    C52     C    0.63296   0.11313   0.75810   1.000
    C53     C    0.62508   0.12825   0.76797   1.000
    C54     C    0.59527   0.10446   0.72120   1.000
    C55     C    0.60288   0.09448   0.70734   1.000
    C56     C    0.59209   0.08763   0.69100   1.000
    C57     C    0.60195   0.08265   0.67484   1.000
    C58     C    0.59255   0.07576   0.65923   1.000
    C59     C    0.57302   0.07359   0.65942   1.000
    C60     C    0.56305   0.07872   0.67546   1.000
    C61     C    0.57248   0.08553   0.69117   1.000
    H62     H    0.60055   0.14649   0.76906   1.000
    H63     H    0.58463   0.13272   0.74297   1.000
    H64     H    0.62991   0.09337   0.73596   1.000
    H65     H    0.64636   0.10730   0.76207   1.000
    H66     H    0.58064   0.10825   0.72043   1.000
    H67     H    0.61782   0.09203   0.70729   1.000
    H68     H    0.61702   0.08409   0.67429   1.000
    H69     H    0.60057   0.07207   0.64696   1.000
    H70     H    0.54803   0.07689   0.67604   1.000
    H71     H    0.56433   0.08863   0.70348   1.000
    C72     C    0.60809   0.63800   0.25895   1.000
    C73     C    0.59873   0.62978   0.24398   1.000
    C74     C    0.60598   0.61380   0.23533   1.000
    C75     C    0.62267   0.60590   0.24224   1.000
    C76     C    0.63207   0.61414   0.25722   1.000
    C77     C    0.62493   0.63033   0.26574   1.000
    C78     C    0.59553   0.60564   0.21947   1.000
    C79     C    0.60355   0.59488   0.20645   1.000
    C80     C    0.59338   0.58723   0.19015   1.000
    C81     C    0.60381   0.58155   0.17460   1.000
    C82     C    0.59496   0.57404   0.15899   1.000
    C83     C    0.57544   0.57192   0.15862   1.000
    C84     C    0.56493   0.57755   0.17414   1.000
    C85     C    0.57380   0.58502   0.18984   1.000
    H86     H    0.60197   0.65033   0.26516   1.000
    H87     H    0.58580   0.63602   0.23906   1.000
    H88     H    0.62841   0.59320   0.23639   1.000
    H89     H    0.64490   0.60773   0.26208   1.000
    H90     H    0.58101   0.60964   0.21801   1.000
    H91     H    0.61845   0.59232   0.20704   1.000
    H92     H    0.61888   0.58305   0.17448   1.000
    H93     H    0.60338   0.57001   0.14710   1.000
    H94     H    0.54989   0.57580   0.17428   1.000
    H95     H    0.56528   0.58866   0.20174   1.000
    C96     C    0.86235   0.89208   0.25957   1.000
    C97     C    0.87007   0.90139   0.24430   1.000
    C98     C    0.88596   0.89436   0.23535   1.000
    C99     C    0.89422   0.87782   0.24224   1.000
    C100    C    0.88652   0.86846   0.25763   1.000
    C101    C    0.87039   0.87541   0.26655   1.000
    C102    C    0.89354   0.90501   0.21923   1.000
    C103    C    0.90421   0.89737   0.20589   1.000
    C104    C    0.91101   0.90784   0.18929   1.000
    C105    C    0.91657   0.89761   0.17356   1.000
    C106    C    0.92353   0.90669   0.15778   1.000
    C107    C    0.92528   0.92627   0.15736   1.000
    C108    C    0.91955   0.93661   0.17298   1.000
    C109    C    0.91259   0.92750   0.18885   1.000
    H110    H    0.85004   0.89824   0.26575   1.000
    H111    H    0.86347   0.91414   0.23937   1.000
    H112    H    0.90680   0.87220   0.23605   1.000
    H113    H    0.89333   0.85582   0.26245   1.000
    H114    H    0.88906   0.91941   0.21781   1.000
    H115    H    0.90733   0.88256   0.20647   1.000
    H116    H    0.91551   0.88250   0.17348   1.000
    H117    H    0.92761   0.89835   0.14585   1.000
    H118    H    0.92100   0.95168   0.17312   1.000
    H119    H    0.90897   0.93593   0.20083   1.000
    C120    C    0.86345   0.39149   0.75861   1.000
    C121    C    0.87151   0.40059   0.74338   1.000
    C122    C    0.88758   0.39341   0.73484   1.000
    C123    C    0.89571   0.37701   0.74217   1.000
    C124    C    0.88765   0.36784   0.75746   1.000
    C125    C    0.87132   0.37490   0.76595   1.000
    C126    C    0.89558   0.40382   0.71878   1.000
    C127    C    0.90684   0.39608   0.70599   1.000
    C128    C    0.91420   0.40638   0.68954   1.000
    C129    C    0.92035   0.39602   0.67412   1.000
    C130    C    0.92768   0.40499   0.65843   1.000
    C131    C    0.92917   0.42458   0.65782   1.000
    C132    C    0.92305   0.43502   0.67324   1.000
    C133    C    0.91574   0.42603   0.68900   1.000
    H134    H    0.85099   0.39768   0.76446   1.000
    H135    H    0.86503   0.41328   0.73815   1.000
    H136    H    0.90845   0.37131   0.73636   1.000
    H137    H    0.89439   0.35527   0.76257   1.000
    H138    H    0.89103   0.41815   0.71697   1.000
    H139    H    0.91006   0.38132   0.70688   1.000
    H140    H    0.91939   0.38090   0.67416   1.000
    H141    H    0.93204   0.39657   0.64667   1.000
    H142    H    0.92431   0.45011   0.67326   1.000
    H143    H    0.91174   0.43453   0.70080   1.000
    C144    C    0.36352   0.89198   0.76099   1.000
    C145    C    0.37160   0.90133   0.74593   1.000
    C146    C    0.38702   0.89371   0.73660   1.000
    C147    C    0.39453   0.87661   0.74299   1.000
    C148    C    0.38643   0.86721   0.75809   1.000
    C149    C    0.37075   0.87473   0.76723   1.000
    C150    C    0.39497   0.90425   0.72063   1.000
    C151    C    0.40544   0.89638   0.70727   1.000
    C152    C    0.41283   0.90673   0.69090   1.000
    C153    C    0.41860   0.89642   0.67530   1.000
    C154    C    0.42595   0.90542   0.65965   1.000
    C155    C    0.42779   0.92497   0.65928   1.000
    C156    C    0.42199   0.93537   0.67482   1.000
    C157    C    0.41471   0.92636   0.69055   1.000
    H158    H    0.35164   0.89842   0.76772   1.000
    H159    H    0.36565   0.91456   0.74144   1.000
    H160    H    0.40679   0.87052   0.73661   1.000
    H161    H    0.39246   0.85404   0.76252   1.000
    H162    H    0.39101   0.91881   0.71940   1.000
    H163    H    0.40799   0.88146   0.70767   1.000
    H164    H    0.41737   0.88132   0.67518   1.000
    H165    H    0.43012   0.89707   0.64776   1.000
    H166    H    0.42352   0.95044   0.67496   1.000
    H167    H    0.41101   0.93484   0.70246   1.000
    C168    C    0.38528   0.36062   0.25465   1.000
    C169    C    0.39389   0.36824   0.23897   1.000
    C170    C    0.38793   0.38536   0.23152   1.000
    C171    C    0.37272   0.39459   0.23993   1.000
    C172    C    0.36399   0.38692   0.25571   1.000
    C173    C    0.37022   0.36984   0.26343   1.000
    C174    C    0.39778   0.39259   0.21479   1.000
    C175    C    0.39753   0.41052   0.20927   1.000
    C176    C    0.40818   0.41751   0.19288   1.000
    C177    C    0.41203   0.43671   0.19159   1.000
    C178    C    0.42170   0.44395   0.17626   1.000
    C179    C    0.42773   0.43212   0.16184   1.000
    C180    C    0.42397   0.41291   0.16309   1.000
    C181    C    0.41418   0.40567   0.17835   1.000
    H182    H    0.39064   0.34740   0.25967   1.000
    H183    H    0.40544   0.36072   0.23269   1.000
    H184    H    0.36731   0.40757   0.23430   1.000
    H185    H    0.35241   0.39451   0.26177   1.000
    H186    H    0.40654   0.38271   0.20745   1.000
    H187    H    0.39009   0.42077   0.21751   1.000
    H188    H    0.40751   0.44617   0.20249   1.000
    H189    H    0.42443   0.45883   0.17564   1.000
    H190    H    0.42805   0.40356   0.15194   1.000
    H191    H    0.41097   0.39091   0.17834   1.000
    C192    C    0.88937   0.14129   0.74085   1.000
    C193    C    0.89816   0.13434   0.75688   1.000
    C194    C    0.89200   0.11775   0.76534   1.000
    C195    C    0.87644   0.10848   0.75765   1.000
    C196    C    0.86760   0.11546   0.74161   1.000
    C197    C    0.87404   0.13189   0.73293   1.000
    C198    C    0.90188   0.11097   0.78234   1.000
    C199    C    0.90166   0.09309   0.78810   1.000
    C200    C    0.91181   0.08612   0.80489   1.000
    C201    C    0.91499   0.06681   0.80664   1.000
    C202    C    0.92391   0.05947   0.82243   1.000
    C203    C    0.92981   0.07128   0.83693   1.000
    C204    C    0.92677   0.09063   0.83518   1.000
    C205    C    0.91778   0.09799   0.81941   1.000
    H206    H    0.89458   0.15413   0.73481   1.000
    H207    H    0.90993   0.14191   0.76263   1.000
    H208    H    0.87083   0.09599   0.76407   1.000
    H209    H    0.85580   0.10788   0.73599   1.000
    H210    H    0.91043   0.12102   0.78967   1.000
    H211    H    0.89442   0.08277   0.77978   1.000
    H212    H    0.91050   0.05733   0.79575   1.000
    H213    H    0.92615   0.04451   0.82333   1.000
    H214    H    0.93081   0.10002   0.84631   1.000
    H215    H    0.91512   0.11287   0.81899   1.000
    C216    C    0.85933   0.60994   0.24474   1.000
    C217    C    0.86695   0.60066   0.26017   1.000
    C218    C    0.88372   0.60677   0.26827   1.000
    C219    C    0.89262   0.62262   0.26074   1.000
    C220    C    0.88499   0.63191   0.24529   1.000
    C221    C    0.86825   0.62570   0.23709   1.000
    C222    C    0.89092   0.59674   0.28496   1.000
    C223    C    0.90876   0.59755   0.29075   1.000
    C224    C    0.91580   0.58787   0.30772   1.000
    C225    C    0.93514   0.58510   0.30972   1.000
    C226    C    0.94246   0.57671   0.32581   1.000
    C227    C    0.93055   0.57093   0.34026   1.000
    C228    C    0.91120   0.57364   0.33830   1.000
    C229    C    0.90388   0.58212   0.32228   1.000
    H230    H    0.84646   0.60466   0.23886   1.000
    H231    H    0.85970   0.58860   0.26578   1.000
    H232    H    0.90521   0.62822   0.26693   1.000
    H233    H    0.89215   0.64413   0.24002   1.000
    H234    H    0.88114   0.58782   0.29224   1.000
    H235    H    0.91890   0.60510   0.28248   1.000
    H236    H    0.94465   0.58950   0.29880   1.000
    H237    H    0.95743   0.57473   0.32696   1.000
    H238    H    0.90175   0.56971   0.34943   1.000
    H239    H    0.88898   0.58458   0.32171   1.000
    C240    C    0.39118   0.13723   0.23826   1.000
    C241    C    0.40048   0.12936   0.25355   1.000
    C242    C    0.39295   0.11398   0.26307   1.000
    C243    C    0.37596   0.10636   0.25668   1.000
    C244    C    0.36662   0.11425   0.24134   1.000
    C245    C    0.37408   0.12984   0.23196   1.000
    C246    C    0.40355   0.10615   0.27919   1.000
    C247    C    0.39581   0.09559   0.29261   1.000
    C248    C    0.40621   0.08817   0.30905   1.000
    C249    C    0.39590   0.08195   0.32451   1.000
    C250    C    0.40488   0.07445   0.34016   1.000
    C251    C    0.42447   0.07285   0.34072   1.000
    C252    C    0.43488   0.07914   0.32534   1.000
    C253    C    0.42587   0.08661   0.30960   1.000
    H254    H    0.39759   0.14906   0.23139   1.000
    H255    H    0.41362   0.13541   0.25802   1.000
    H256    H    0.36991   0.09415   0.26322   1.000
    H257    H    0.35357   0.10807   0.23689   1.000
    H258    H    0.41806   0.11018   0.28040   1.000
    H259    H    0.38093   0.09290   0.29218   1.000
    H260    H    0.38077   0.08293   0.32451   1.000
    H261    H    0.39648   0.06995   0.35190   1.000
    H262    H    0.44997   0.07784   0.32531   1.000
    H263    H    0.43439   0.09069   0.29784   1.000
    C264    C    0.35851   0.60842   0.74273   1.000
    C265    C    0.36583   0.59931   0.75843   1.000
    C266    C    0.38206   0.60593   0.76719   1.000
    C267    C    0.39062   0.62219   0.76017   1.000
    C268    C    0.38330   0.63131   0.74449   1.000
    C269    C    0.36719   0.62452   0.73550   1.000
    C270    C    0.38922   0.59600   0.78396   1.000
    C271    C    0.40710   0.59690   0.78962   1.000
    C272    C    0.41438   0.58740   0.80659   1.000
    C273    C    0.43374   0.58455   0.80825   1.000
    C274    C    0.44133   0.57634   0.82430   1.000
    C275    C    0.42969   0.57087   0.83910   1.000
    C276    C    0.41031   0.57369   0.83747   1.000
    C277    C    0.40272   0.58194   0.82145   1.000
    H278    H    0.34608   0.60275   0.73628   1.000
    H279    H    0.35883   0.58695   0.76368   1.000
    H280    H    0.40273   0.62819   0.76693   1.000
    H281    H    0.39025   0.64381   0.73963   1.000
    H282    H    0.37950   0.58708   0.79133   1.000
    H283    H    0.41715   0.60440   0.78117   1.000
    H284    H    0.44306   0.58872   0.79709   1.000
    H285    H    0.45631   0.57423   0.82513   1.000
    H286    H    0.40105   0.57000   0.84884   1.000
    H287    H    0.38782   0.58447   0.82107   1.000
    C288    C    0.14150   0.88802   0.74334   1.000
    C289    C    0.13422   0.89674   0.75918   1.000
    C290    C    0.11739   0.89065   0.76713   1.000
    C291    C    0.10814   0.87529   0.75905   1.000
    C292    C    0.11543   0.86656   0.74318   1.000
    C293    C    0.13218   0.87284   0.73506   1.000
    C294    C    0.11042   0.90031   0.78410   1.000
    C295    C    0.09258   0.89967   0.78989   1.000
    C296    C    0.08559   0.90935   0.80686   1.000
    C297    C    0.06625   0.91210   0.80879   1.000
    C298    C    0.05892   0.92057   0.82476   1.000
    C299    C    0.07080   0.92648   0.83922   1.000
    C300    C    0.09016   0.92382   0.83733   1.000
    C301    C    0.09750   0.91525   0.82140   1.000
    H302    H    0.15452   0.89322   0.73773   1.000
    H303    H    0.14177   0.90838   0.76521   1.000
    H304    H    0.09546   0.86972   0.76505   1.000
    H305    H    0.10786   0.85487   0.73734   1.000
    H306    H    0.12034   0.90893   0.79153   1.000
    H307    H    0.08233   0.89237   0.78154   1.000
    H308    H    0.05673   0.90763   0.79790   1.000
    H309    H    0.04394   0.92254   0.82579   1.000
    H310    H    0.09962   0.92787   0.84843   1.000
    H311    H    0.11242   0.91289   0.82087   1.000
    C312    C    0.11653   0.35874   0.24681   1.000
    C313    C    0.10793   0.36609   0.26265   1.000
    C314    C    0.11211   0.38419   0.26885   1.000
    C315    C    0.12558   0.39467   0.25900   1.000
    C316    C    0.13423   0.38727   0.24307   1.000
    C317    C    0.12966   0.36926   0.23668   1.000
    C318    C    0.10234   0.39113   0.28579   1.000
    C319    C    0.10124   0.40919   0.29076   1.000
    C320    C    0.09093   0.41595   0.30751   1.000
    C321    C    0.08678   0.43511   0.30885   1.000
    C322    C    0.07760   0.44226   0.32451   1.000
    C323    C    0.07231   0.43039   0.33924   1.000
    C324    C    0.07629   0.41121   0.33792   1.000
    C325    C    0.08562   0.40406   0.32232   1.000
    H326    H    0.11283   0.34470   0.24265   1.000
    H327    H    0.09783   0.35758   0.27003   1.000
    H328    H    0.12968   0.40846   0.26357   1.000
    H329    H    0.14434   0.39574   0.23569   1.000
    H330    H    0.09493   0.38076   0.29389   1.000
    H331    H    0.10744   0.41973   0.28187   1.000
    H332    H    0.09072   0.44463   0.29775   1.000
    H333    H    0.07465   0.45711   0.32514   1.000
    H334    H    0.07275   0.40180   0.34925   1.000
    H335    H    0.08899   0.38932   0.32232   1.000
    C336    C    0.64191   0.88913   0.24612   1.000
    C337    C    0.63459   0.89818   0.26171   1.000
    C338    C    0.61751   0.89255   0.26944   1.000
    C339    C    0.60803   0.87732   0.26140   1.000
    C340    C    0.61536   0.86825   0.24575   1.000
    C341    C    0.63236   0.87410   0.23784   1.000
    C342    C    0.61051   0.90260   0.28611   1.000
    C343    C    0.59256   0.90256   0.29151   1.000
    C344    C    0.58561   0.91265   0.30821   1.000
    C345    C    0.56635   0.91615   0.30969   1.000
    C346    C    0.55904   0.92501   0.32544   1.000
    C347    C    0.57086   0.93054   0.34009   1.000
    C348    C    0.59014   0.92719   0.33862   1.000
    C349    C    0.59745   0.91822   0.32292   1.000
    H350    H    0.65512   0.89400   0.24068   1.000
    H351    H    0.64230   0.90974   0.26772   1.000
    H352    H    0.59513   0.87210   0.26728   1.000
    H353    H    0.60764   0.85665   0.23992   1.000
    H354    H    0.62054   0.91105   0.29360   1.000
    H355    H    0.58224   0.89543   0.28307   1.000
    H356    H    0.55689   0.91192   0.29866   1.000
    H357    H    0.54411   0.92748   0.32620   1.000
    H358    H    0.59950   0.93094   0.34991   1.000
    H359    H    0.61227   0.91525   0.32274   1.000
    C360    C    0.60708   0.36332   0.73865   1.000
    C361    C    0.59779   0.37117   0.75389   1.000
    C362    C    0.60574   0.38597   0.76393   1.000
    C363    C    0.62315   0.39306   0.75807   1.000
    C364    C    0.63247   0.38519   0.74277   1.000
    C365    C    0.62459   0.37014   0.73291   1.000
    C366    C    0.59515   0.39374   0.78002   1.000
    C367    C    0.60300   0.40368   0.79384   1.000
    C368    C    0.59260   0.41096   0.81029   1.000
    C369    C    0.60293   0.41673   0.82593   1.000
    C370    C    0.59399   0.42415   0.84158   1.000
    C371    C    0.57443   0.42608   0.84199   1.000
    C372    C    0.56400   0.42018   0.82647   1.000
    C373    C    0.57296   0.41281   0.81072   1.000
    H374    H    0.60034   0.35194   0.73138   1.000
    H375    H    0.58434   0.36553   0.75792   1.000
    H376    H    0.62956   0.40483   0.76501   1.000
    H377    H    0.64586   0.39091   0.73875   1.000
    H378    H    0.58051   0.39013   0.78086   1.000
    H379    H    0.61795   0.40596   0.79370   1.000
    H380    H    0.61803   0.41552   0.82605   1.000
    H381    H    0.60242   0.42834   0.85342   1.000
    H382    H    0.54893   0.42175   0.82630   1.000
    H383    H    0.56441   0.40906   0.79885   1.000
    C384    C    0.25182   0.14080   0.11553   1.000
    C385    C    0.23599   0.13326   0.10706   1.000
    C386    C    0.23000   0.11510   0.11138   1.000
    C387    C    0.24006   0.10475   0.12487   1.000
    C388    C    0.25601   0.11233   0.13338   1.000
    C389    C    0.26218   0.13040   0.12868   1.000
    C390    C    0.21306   0.10797   0.10169   1.000
    C391    C    0.20802   0.08990   0.10105   1.000
    C392    C    0.19128   0.08299   0.09078   1.000
    C393    C    0.18984   0.06375   0.08717   1.000
    C394    C    0.17423   0.05650   0.07793   1.000
    C395    C    0.15968   0.06836   0.07203   1.000
    C396    C    0.16107   0.08760   0.07553   1.000
    C397    C    0.17659   0.09485   0.08493   1.000
    H398    H    0.25581   0.15487   0.11172   1.000
    H399    H    0.22843   0.14167   0.09693   1.000
    H400    H    0.23569   0.09091   0.12908   1.000
    H401    H    0.26355   0.10394   0.14350   1.000
    H402    H    0.20500   0.11819   0.09396   1.000
    H403    H    0.21682   0.07946   0.10762   1.000
    H404    H    0.20084   0.05425   0.09155   1.000
    H405    H    0.17352   0.04159   0.07538   1.000
    H406    H    0.14984   0.09700   0.07151   1.000
    H407    H    0.17664   0.10965   0.08789   1.000
    C408    C    0.25837   0.64138   0.60861   1.000
    C409    C    0.24288   0.63383   0.59942   1.000
    C410    C    0.23390   0.61787   0.60644   1.000
    C411    C    0.24058   0.60977   0.62310   1.000
    C412    C    0.25605   0.61733   0.63231   1.000
    C413    C    0.26517   0.63323   0.62520   1.000
    C414    C    0.21724   0.61062   0.59646   1.000
    C415    C    0.21121   0.59292   0.59802   1.000
    C416    C    0.19430   0.58570   0.58842   1.000
    C417    C    0.19241   0.56631   0.58610   1.000
    C418    C    0.17640   0.55882   0.57779   1.000
    C419    C    0.16185   0.57059   0.57170   1.000
    C420    C    0.16370   0.59001   0.57402   1.000
    C421    C    0.17969   0.59750   0.58236   1.000
    H422    H    0.26492   0.65362   0.60265   1.000
    H423    H    0.23792   0.64046   0.58671   1.000
    H424    H    0.23368   0.59787   0.62937   1.000
    H425    H    0.26064   0.61075   0.64515   1.000
    H426    H    0.21022   0.62013   0.58697   1.000
    H427    H    0.21929   0.58297   0.60613   1.000
    H428    H    0.20337   0.55689   0.59075   1.000
    H429    H    0.17541   0.54381   0.57609   1.000
    H430    H    0.15252   0.59939   0.56986   1.000
    H431    H    0.18024   0.61246   0.58447   1.000
    C432    C    0.75622   0.14110   0.61131   1.000
    C433    C    0.74082   0.13349   0.60207   1.000
    C434    C    0.73259   0.11686   0.60838   1.000
    C435    C    0.74011   0.10801   0.62433   1.000
    C436    C    0.75557   0.11565   0.63360   1.000
    C437    C    0.76377   0.13234   0.62724   1.000
    C438    C    0.71583   0.10982   0.59834   1.000
    C439    C    0.70955   0.09218   0.59949   1.000
    C440    C    0.69263   0.08541   0.58950   1.000
    C441    C    0.69043   0.06610   0.58682   1.000
    C442    C    0.67440   0.05903   0.57817   1.000
    C443    C    0.66012   0.07113   0.57207   1.000
    C444    C    0.66232   0.09047   0.57462   1.000
    C445    C    0.67833   0.09755   0.58333   1.000
    H446    H    0.76218   0.15386   0.60582   1.000
    H447    H    0.73532   0.14066   0.58989   1.000
    H448    H    0.73390   0.09546   0.63003   1.000
    H449    H    0.76085   0.10861   0.64593   1.000
    H450    H    0.70889   0.11958   0.58905   1.000
    H451    H    0.71740   0.08196   0.60747   1.000
    H452    H    0.70115   0.05641   0.59149   1.000
    H453    H    0.67315   0.04406   0.57630   1.000
    H454    H    0.65137   0.10011   0.57043   1.000
    H455    H    0.67908   0.11246   0.58565   1.000
    C456    C    0.76264   0.60731   0.13593   1.000
    C457    C    0.74792   0.59756   0.12763   1.000
    C458    C    0.73801   0.60529   0.11256   1.000
    C459    C    0.74357   0.62284   0.10552   1.000
    C460    C    0.75833   0.63261   0.11383   1.000
    C461    C    0.76792   0.62505   0.12926   1.000
    C462    C    0.72224   0.59449   0.10450   1.000
    C463    C    0.70822   0.60237   0.09477   1.000
    C464    C    0.69196   0.59191   0.08725   1.000
    C465    C    0.67611   0.60214   0.08170   1.000
    C466    C    0.66055   0.59313   0.07418   1.000
    C467    C    0.66046   0.57362   0.07194   1.000
    C468    C    0.67621   0.56328   0.07755   1.000
    C469    C    0.69188   0.57232   0.08500   1.000
    H470    H    0.76985   0.60084   0.14757   1.000
    H471    H    0.74413   0.58397   0.13318   1.000
    H472    H    0.73675   0.62905   0.09351   1.000
    H473    H    0.76204   0.64616   0.10823   1.000
    H474    H    0.72176   0.57973   0.10778   1.000
    H475    H    0.70802   0.61740   0.09293   1.000
    H476    H    0.67575   0.61721   0.08322   1.000
    H477    H    0.64849   0.60145   0.07021   1.000
    H478    H    0.67657   0.54825   0.07575   1.000
    H479    H    0.70393   0.56388   0.08856   1.000
    C480    C    0.25573   0.89003   0.86132   1.000
    C481    C    0.24014   0.89895   0.86890   1.000
    C482    C    0.23122   0.89162   0.88471   1.000
    C483    C    0.23802   0.87490   0.89262   1.000
    C484    C    0.25363   0.86595   0.88502   1.000
    C485    C    0.26272   0.87342   0.86930   1.000
    C486    C    0.21451   0.90142   0.89198   1.000
    C487    C    0.20841   0.89966   0.90959   1.000
    C488    C    0.19154   0.90935   0.91668   1.000
    C489    C    0.18969   0.91205   0.93599   1.000
    C490    C    0.17373   0.92063   0.94327   1.000
    C491    C    0.15927   0.92661   0.93136   1.000
    C492    C    0.16108   0.92388   0.91204   1.000
    C493    C    0.17698   0.91525   0.90476   1.000
    H494    H    0.26223   0.89628   0.84921   1.000
    H495    H    0.23507   0.91171   0.86242   1.000
    H496    H    0.23116   0.86843   0.90442   1.000
    H497    H    0.25838   0.85307   0.89144   1.000
    H498    H    0.20755   0.91106   0.88258   1.000
    H499    H    0.21640   0.89144   0.91951   1.000
    H500    H    0.20063   0.90751   0.94547   1.000
    H501    H    0.17270   0.92262   0.95822   1.000
    H502    H    0.14992   0.92792   0.90260   1.000
    H503    H    0.17749   0.91279   0.88988   1.000
    C504    C    0.26008   0.36196   0.38955   1.000
    C505    C    0.24479   0.36983   0.39873   1.000
    C506    C    0.23631   0.38619   0.39201   1.000
    C507    C    0.24368   0.39474   0.37590   1.000
    C508    C    0.25905   0.38689   0.36666   1.000
    C509    C    0.26755   0.37034   0.37333   1.000
    C510    C    0.22027   0.39406   0.40256   1.000
    C511    C    0.20749   0.40562   0.39506   1.000
    C512    C    0.19116   0.41303   0.40551   1.000
    C513    C    0.17564   0.41946   0.39533   1.000
    C514    C    0.16008   0.42689   0.40445   1.000
    C515    C    0.15972   0.42826   0.42403   1.000
    C516    C    0.17522   0.42180   0.43429   1.000
    C517    C    0.19083   0.41435   0.42515   1.000
    H518    H    0.26593   0.34930   0.39541   1.000
    H519    H    0.23949   0.36300   0.41117   1.000
    H520    H    0.23792   0.40768   0.37054   1.000
    H521    H    0.26424   0.39400   0.35439   1.000
    H522    H    0.21848   0.38921   0.41677   1.000
    H523    H    0.20833   0.40912   0.38038   1.000
    H524    H    0.17550   0.41866   0.38022   1.000
    H525    H    0.14825   0.43149   0.39615   1.000
    H526    H    0.17545   0.42293   0.44937   1.000
    H527    H    0.20271   0.41011   0.43352   1.000
    C528    C    0.75424   0.88943   0.35887   1.000
    C529    C    0.73853   0.89829   0.36627   1.000
    C530    C    0.73087   0.89238   0.38328   1.000
    C531    C    0.73902   0.87699   0.39256   1.000
    C532    C    0.75479   0.86812   0.38516   1.000
    C533    C    0.76267   0.87430   0.36827   1.000
    C534    C    0.71415   0.90229   0.39046   1.000
    C535    C    0.70888   0.90201   0.40842   1.000
    C536    C    0.69225   0.91213   0.41558   1.000
    C537    C    0.69096   0.91551   0.43484   1.000
    C538    C    0.67530   0.92446   0.44230   1.000
    C539    C    0.66056   0.93023   0.43064   1.000
    C540    C    0.66182   0.92695   0.41136   1.000
    C541    C    0.67742   0.91789   0.40390   1.000
    H542    H    0.75964   0.89450   0.34571   1.000
    H543    H    0.73239   0.90994   0.35870   1.000
    H544    H    0.73318   0.87153   0.40537   1.000
    H545    H    0.76074   0.85643   0.39275   1.000
    H546    H    0.70654   0.91087   0.38057   1.000
    H547    H    0.71747   0.89478   0.41860   1.000
    H548    H    0.70210   0.91115   0.44418   1.000
    H549    H    0.67467   0.92686   0.45722   1.000
    H550    H    0.65045   0.93086   0.40212   1.000
    H551    H    0.67745   0.91502   0.38910   1.000
    C552    C    0.75716   0.39172   0.86132   1.000
    C553    C    0.74194   0.40087   0.86940   1.000
    C554    C    0.73413   0.39430   0.88610   1.000
    C555    C    0.74216   0.37855   0.89483   1.000
    C556    C    0.75741   0.36939   0.88676   1.000
    C557    C    0.76509   0.37582   0.86986   1.000
    C558    C    0.71812   0.40462   0.89424   1.000
    C559    C    0.70580   0.39679   0.90597   1.000
    C560    C    0.68954   0.40692   0.91384   1.000
    C561    C    0.67428   0.39647   0.92028   1.000
    C562    C    0.65876   0.40534   0.92807   1.000
    C563    C    0.65822   0.42492   0.92976   1.000
    C564    C    0.67353   0.43543   0.92344   1.000
    C565    C    0.68909   0.42654   0.91564   1.000
    H566    H    0.76258   0.39718   0.84833   1.000
    H567    H    0.73614   0.41307   0.86247   1.000
    H568    H    0.73698   0.37341   0.90806   1.000
    H569    H    0.76320   0.35736   0.89391   1.000
    H570    H    0.71594   0.41884   0.88951   1.000
    H571    H    0.70698   0.38206   0.90929   1.000
    H572    H    0.67429   0.38136   0.91914   1.000
    H573    H    0.64706   0.39688   0.93257   1.000
    H574    H    0.67360   0.45050   0.92485   1.000
    H575    H    0.70082   0.43507   0.91143   1.000
    C576    C    0.73967   0.89254   0.13557   1.000
    C577    C    0.75473   0.90188   0.12747   1.000
    C578    C    0.76423   0.89418   0.11222   1.000
    C579    C    0.75802   0.87698   0.10494   1.000
    C580    C    0.74290   0.86759   0.11308   1.000
    C581    C    0.73357   0.87523   0.12855   1.000
    C582    C    0.78009   0.90486   0.10418   1.000
    C583    C    0.79348   0.89721   0.09357   1.000
    C584    C    0.80968   0.90779   0.08607   1.000
    C585    C    0.82540   0.89769   0.08011   1.000
    C586    C    0.84085   0.90690   0.07258   1.000
    C587    C    0.84091   0.92647   0.07071   1.000
    C588    C    0.82527   0.93667   0.07675   1.000
    C589    C    0.80974   0.92744   0.08423   1.000
    H590    H    0.73280   0.89910   0.14728   1.000
    H591    H    0.75904   0.91518   0.13326   1.000
    H592    H    0.76456   0.87078   0.09284   1.000
    H593    H    0.73859   0.85436   0.10721   1.000
    H594    H    0.78118   0.91940   0.10813   1.000
    H595    H    0.79325   0.88232   0.09099   1.000
    H596    H    0.82577   0.88258   0.08131   1.000
    H597    H    0.85282   0.89869   0.06825   1.000
    H598    H    0.82485   0.95174   0.07523   1.000
    H599    H    0.79775   0.93578   0.08809   1.000
    C600    C    0.73773   0.36577   0.60785   1.000
    C601    C    0.75282   0.37373   0.59848   1.000
    C602    C    0.76335   0.38801   0.60672   1.000
    C603    C    0.75810   0.39451   0.62454   1.000
    C604    C    0.74290   0.38650   0.63397   1.000
    C605    C    0.73263   0.37191   0.62579   1.000
    C606    C    0.77934   0.39575   0.59599   1.000
    C607    C    0.79354   0.40527   0.60368   1.000
    C608    C    0.80996   0.41221   0.59300   1.000
    C609    C    0.82600   0.41742   0.60302   1.000
    C610    C    0.84168   0.42443   0.59379   1.000
    C611    C    0.84171   0.42648   0.57427   1.000
    C612    C    0.82580   0.42111   0.56413   1.000
    C613    C    0.81002   0.41418   0.57338   1.000
    H614    H    0.73006   0.35483   0.60084   1.000
    H615    H    0.75637   0.36857   0.58472   1.000
    H616    H    0.76546   0.40588   0.63120   1.000
    H617    H    0.73933   0.39166   0.64769   1.000
    H618    H    0.77982   0.39237   0.58129   1.000
    H619    H    0.79377   0.40735   0.61863   1.000
    H620    H    0.82642   0.41609   0.61809   1.000
    H621    H    0.85384   0.42827   0.60196   1.000
    H622    H    0.82538   0.42280   0.54910   1.000
    H623    H    0.79785   0.41088   0.56506   1.000
    C624    C    0.24628   0.85794   0.61300   1.000
    C625    C    0.26206   0.86514   0.60417   1.000
    C626    C    0.26914   0.88271   0.60909   1.000
    C627    C    0.26031   0.89279   0.62348   1.000
    C628    C    0.24445   0.88557   0.63233   1.000
    C629    C    0.23715   0.86811   0.62709   1.000
    C630    C    0.28595   0.88960   0.59917   1.000
    C631    C    0.29098   0.90764   0.59844   1.000
    C632    C    0.30768   0.91448   0.58824   1.000
    C633    C    0.30901   0.93368   0.58430   1.000
    C634    C    0.32475   0.94091   0.57533   1.000
    C635    C    0.33950   0.92907   0.57007   1.000
    C636    C    0.33816   0.90985   0.57381   1.000
    C637    C    0.32251   0.90262   0.58292   1.000
    H638    H    0.24137   0.84433   0.60870   1.000
    H639    H    0.26871   0.85696   0.59332   1.000
    H640    H    0.26567   0.90610   0.62817   1.000
    H641    H    0.23791   0.89376   0.64319   1.000
    H642    H    0.29381   0.87933   0.59139   1.000
    H643    H    0.28219   0.91808   0.60492   1.000
    H644    H    0.29789   0.94316   0.58829   1.000
    H645    H    0.32546   0.95580   0.57259   1.000
    H646    H    0.34955   0.90050   0.57028   1.000
    H647    H    0.32248   0.88786   0.58619   1.000
    C648    C    0.24433   0.35964   0.11281   1.000
    C649    C    0.26026   0.36711   0.10435   1.000
    C650    C    0.26767   0.38429   0.11020   1.000
    C651    C    0.25889   0.39369   0.12507   1.000
    C652    C    0.24291   0.38620   0.13356   1.000
    C653    C    0.23536   0.36909   0.12750   1.000
    C654    C    0.28478   0.39141   0.10075   1.000
    C655    C    0.29053   0.40929   0.10133   1.000
    C656    C    0.30753   0.41639   0.09162   1.000
    C657    C    0.30944   0.43577   0.08897   1.000
    C658    C    0.32534   0.44319   0.08036   1.000
    C659    C    0.33980   0.43139   0.07420   1.000
    C660    C    0.33794   0.41199   0.07682   1.000
    C661    C    0.32207   0.40456   0.08550   1.000
    H662    H    0.23920   0.34636   0.10779   1.000
    H663    H    0.26679   0.35942   0.09309   1.000
    H664    H    0.26439   0.40668   0.13045   1.000
    H665    H    0.23651   0.39388   0.14486   1.000
    H666    H    0.29237   0.38150   0.09227   1.000
    H667    H    0.28209   0.41953   0.10857   1.000
    H668    H    0.29857   0.44525   0.09358   1.000
    H669    H    0.32630   0.45818   0.07845   1.000
    H670    H    0.34901   0.40257   0.07259   1.000
    H671    H    0.32158   0.38962   0.08774   1.000
    C672    C    0.74302   0.14068   0.88767   1.000
    C673    C    0.75871   0.13308   0.89652   1.000
    C674    C    0.76709   0.11666   0.88985   1.000
    C675    C    0.75948   0.10807   0.87388   1.000
    C676    C    0.74373   0.11571   0.86499   1.000
    C677    C    0.73530   0.13214   0.87174   1.000
    C678    C    0.78408   0.10957   0.89956   1.000
    C679    C    0.79045   0.09194   0.89823   1.000
    C680    C    0.80749   0.08506   0.90804   1.000
    C681    C    0.80974   0.06572   0.91072   1.000
    C682    C    0.82580   0.05857   0.91936   1.000
    C683    C    0.84006   0.07061   0.92545   1.000
    C684    C    0.83783   0.08997   0.92283   1.000
    C685    C    0.82180   0.09713   0.91414   1.000
    H686    H    0.73705   0.15331   0.89341   1.000
    H687    H    0.76432   0.14008   0.90869   1.000
    H688    H    0.76580   0.09571   0.86793   1.000
    H689    H    0.73836   0.10878   0.85270   1.000
    H690    H    0.79108   0.11921   0.90884   1.000
    H691    H    0.78256   0.08181   0.89028   1.000
    H692    H    0.79903   0.05609   0.90610   1.000
    H693    H    0.82708   0.04359   0.92128   1.000
    H694    H    0.84876   0.09956   0.92699   1.000
    H695    H    0.82101   0.11205   0.91179   1.000
    C696    C    0.73935   0.60831   0.36271   1.000
    C697    C    0.75476   0.59899   0.37034   1.000
    C698    C    0.76439   0.60642   0.38568   1.000
    C699    C    0.75801   0.62333   0.39348   1.000
    C700    C    0.74257   0.63268   0.38583   1.000
    C701    C    0.73304   0.62532   0.37032   1.000
    C702    C    0.78054   0.59580   0.39337   1.000
    C703    C    0.79400   0.60354   0.40386   1.000
    C704    C    0.81032   0.59309   0.41145   1.000
    C705    C    0.82585   0.60335   0.41761   1.000
    C706    C    0.84136   0.59431   0.42536   1.000
    C707    C    0.84169   0.57475   0.42724   1.000
    C708    C    0.82625   0.56439   0.42100   1.000
    C709    C    0.81065   0.57345   0.41330   1.000
    H710    H    0.73240   0.60202   0.35089   1.000
    H711    H    0.75922   0.58591   0.36416   1.000
    H712    H    0.76461   0.62927   0.40569   1.000
    H713    H    0.73814   0.64565   0.39218   1.000
    H714    H    0.78169   0.58126   0.38938   1.000
    H715    H    0.79363   0.61844   0.40647   1.000
    H716    H    0.82599   0.61846   0.41642   1.000
    H717    H    0.85317   0.60265   0.42980   1.000
    H718    H    0.82606   0.54932   0.42251   1.000
    H719    H    0.79881   0.56500   0.40927   1.000
    C720    C    0.23971   0.10839   0.35948   1.000
    C721    C    0.25474   0.09880   0.36755   1.000
    C722    C    0.26351   0.10561   0.38368   1.000
    C723    C    0.25660   0.12214   0.39183   1.000
    C724    C    0.24153   0.13175   0.38375   1.000
    C725    C    0.23290   0.12504   0.36742   1.000
    C726    C    0.27940   0.09481   0.39173   1.000
    C727    C    0.29240   0.10232   0.40296   1.000
    C728    C    0.30864   0.09180   0.41067   1.000
    C729    C    0.32394   0.10202   0.41745   1.000
    C730    C    0.33940   0.09291   0.42522   1.000
    C731    C    0.33993   0.07329   0.42653   1.000
    C732    C    0.32469   0.06299   0.41972   1.000
    C733    C    0.30914   0.07212   0.41196   1.000
    H734    H    0.23351   0.10264   0.34697   1.000
    H735    H    0.25964   0.08603   0.36105   1.000
    H736    H    0.26251   0.12758   0.40461   1.000
    H737    H    0.23663   0.14438   0.39044   1.000
    H738    H    0.28086   0.08044   0.38730   1.000
    H739    H    0.29177   0.11712   0.40603   1.000
    H740    H    0.32395   0.11716   0.41670   1.000
    H741    H    0.35105   0.10124   0.43010   1.000
    H742    H    0.32461   0.04788   0.42079   1.000
    H743    H    0.29747   0.06369   0.40744   1.000
    C744    C    0.24460   0.60980   0.86035   1.000
    C745    C    0.26037   0.60103   0.86788   1.000
    C746    C    0.26927   0.60835   0.88370   1.000
    C747    C    0.26230   0.62493   0.89164   1.000
    C748    C    0.24651   0.63372   0.88410   1.000
    C749    C    0.23741   0.62623   0.86839   1.000
    C750    C    0.28611   0.59867   0.89099   1.000
    C751    C    0.29221   0.60034   0.90862   1.000
    C752    C    0.30907   0.59063   0.91585   1.000
    C753    C    0.31103   0.58816   0.93521   1.000
    C754    C    0.32696   0.57955   0.94263   1.000
    C755    C    0.34129   0.57328   0.93081   1.000
    C756    C    0.33939   0.57577   0.91145   1.000
    C757    C    0.32352   0.58445   0.90403   1.000
    H758    H    0.23812   0.60356   0.84823   1.000
    H759    H    0.26558   0.58841   0.86136   1.000
    H760    H    0.26915   0.63142   0.90342   1.000
    H761    H    0.24160   0.64645   0.89057   1.000
    H762    H    0.29308   0.58908   0.88162   1.000
    H763    H    0.28419   0.60851   0.91849   1.000
    H764    H    0.30018   0.59289   0.94463   1.000
    H765    H    0.32808   0.57776   0.95761   1.000
    H766    H    0.35045   0.57149   0.90206   1.000
    H767    H    0.32294   0.58668   0.88910   1.000
    C768    C    0.10761   0.25900   0.13623   1.000
    C769    C    0.09834   0.24377   0.12834   1.000
    C770    C    0.10582   0.23443   0.11287   1.000
    C771    C    0.12274   0.24093   0.10520   1.000
    C772    C    0.13204   0.25620   0.11311   1.000
    C773    C    0.12462   0.26543   0.12877   1.000
    C774    C    0.09525   0.21842   0.10496   1.000
    C775    C    0.10303   0.20510   0.09431   1.000
    C776    C    0.09260   0.18884   0.08672   1.000
    C777    C    0.10284   0.17320   0.08078   1.000
    C778    C    0.09381   0.15771   0.07314   1.000
    C779    C    0.07425   0.15751   0.07113   1.000
    C780    C    0.06392   0.17310   0.07711   1.000
    C781    C    0.07298   0.18867   0.08472   1.000
    H782    H    0.10126   0.26571   0.14814   1.000
    H783    H    0.08527   0.23920   0.13444   1.000
    H784    H    0.12873   0.23454   0.09292   1.000
    H785    H    0.14501   0.26074   0.10687   1.000
    H786    H    0.08074   0.21719   0.10897   1.000
    H787    H    0.11791   0.20549   0.09168   1.000
    H788    H    0.11794   0.17293   0.08210   1.000
    H789    H    0.10214   0.14579   0.06890   1.000
    H790    H    0.04887   0.17343   0.07548   1.000
    H791    H    0.06456   0.20061   0.08857   1.000
    C792    C    0.14120   0.75320   0.61603   1.000
    C793    C    0.13391   0.73735   0.60743   1.000
    C794    C    0.11594   0.73095   0.61180   1.000
    C795    C    0.10552   0.74057   0.62544   1.000
    C796    C    0.11285   0.75653   0.63407   1.000
    C797    C    0.13073   0.76312   0.62933   1.000
    C798    C    0.10908   0.71401   0.60204   1.000
    C799    C    0.09108   0.70883   0.60123   1.000
    C800    C    0.08447   0.69204   0.59097   1.000
    C801    C    0.06534   0.69056   0.58679   1.000
    C802    C    0.05836   0.67482   0.57760   1.000
    C803    C    0.07040   0.66022   0.57235   1.000
    C804    C    0.08954   0.66168   0.57639   1.000
    C805    C    0.09650   0.67732   0.58573   1.000
    H806    H    0.15516   0.75751   0.61222   1.000
    H807    H    0.14237   0.73011   0.59719   1.000
    H808    H    0.09183   0.73582   0.62968   1.000
    H809    H    0.10443   0.76375   0.64432   1.000
    H810    H    0.11941   0.70609   0.59440   1.000
    H811    H    0.08051   0.71755   0.60760   1.000
    H812    H    0.05572   0.70159   0.59071   1.000
    H813    H    0.04353   0.67403   0.57464   1.000
    H814    H    0.09903   0.65040   0.57287   1.000
    H815    H    0.11121   0.67742   0.58919   1.000
    C816    C    0.64078   0.25301   0.61327   1.000
    C817    C    0.63313   0.23747   0.60436   1.000
    C818    C    0.61579   0.23026   0.60990   1.000
    C819    C    0.60640   0.23872   0.62495   1.000
    C820    C    0.61405   0.25433   0.63387   1.000
    C821    C    0.63129   0.26175   0.62807   1.000
    C822    C    0.60843   0.21364   0.59999   1.000
    C823    C    0.59039   0.20851   0.60015   1.000
    C824    C    0.58314   0.19185   0.59018   1.000
    C825    C    0.56384   0.19061   0.58677   1.000
    C826    C    0.55629   0.17492   0.57795   1.000
    C827    C    0.56791   0.16013   0.57235   1.000
    C828    C    0.58722   0.16133   0.57569   1.000
    C829    C    0.59476   0.17694   0.58461   1.000
    H830    H    0.65417   0.25805   0.60849   1.000
    H831    H    0.64079   0.23110   0.59298   1.000
    H832    H    0.59331   0.23326   0.63012   1.000
    H833    H    0.60636   0.26053   0.64528   1.000
    H834    H    0.61829   0.20592   0.59155   1.000
    H835    H    0.58024   0.21718   0.60723   1.000
    H836    H    0.55454   0.20180   0.59099   1.000
    H837    H    0.54135   0.17435   0.57550   1.000
    H838    H    0.59643   0.14992   0.57190   1.000
    H839    H    0.60959   0.17691   0.58752   1.000
    C840    C    0.60892   0.76070   0.13843   1.000
    C841    C    0.59976   0.74541   0.13049   1.000
    C842    C    0.60718   0.73633   0.11483   1.000
    C843    C    0.62390   0.74314   0.10703   1.000
    C844    C    0.63309   0.75846   0.11499   1.000
    C845    C    0.62574   0.76744   0.13082   1.000
    C846    C    0.59672   0.72027   0.10685   1.000
    C847    C    0.60448   0.70728   0.09579   1.000
    C848    C    0.59416   0.69100   0.08808   1.000
    C849    C    0.60452   0.67565   0.08157   1.000
    C850    C    0.59556   0.66013   0.07388   1.000
    C851    C    0.57597   0.65961   0.07239   1.000
    C852    C    0.56554   0.67493   0.07886   1.000
    C853    C    0.57451   0.69052   0.08652   1.000
    H854    H    0.60263   0.76721   0.15049   1.000
    H855    H    0.58682   0.74060   0.13670   1.000
    H856    H    0.62985   0.73697   0.09462   1.000
    H857    H    0.64593   0.76322   0.10863   1.000
    H858    H    0.58231   0.71875   0.11109   1.000
    H859    H    0.61929   0.70793   0.09287   1.000
    H860    H    0.61964   0.67562   0.08252   1.000
    H861    H    0.60398   0.64843   0.06926   1.000
    H862    H    0.55044   0.67502   0.07764   1.000
    H863    H    0.56598   0.70224   0.09079   1.000
    C864    C    0.85890   0.25625   0.88563   1.000
    C865    C    0.86633   0.24033   0.89425   1.000
    C866    C    0.88348   0.23281   0.88846   1.000
    C867    C    0.89291   0.24141   0.87349   1.000
    C868    C    0.88547   0.25739   0.86485   1.000
    C869    C    0.86839   0.26507   0.87086   1.000
    C870    C    0.89059   0.21578   0.89809   1.000
    C871    C    0.90852   0.21016   0.89772   1.000
    C872    C    0.91558   0.19321   0.90758   1.000
    C873    C    0.93490   0.19147   0.91069   1.000
    C874    C    0.94228   0.17559   0.91947   1.000
    C875    C    0.93049   0.16103   0.92533   1.000
    C876    C    0.91115   0.16273   0.92226   1.000
    C877    C    0.90377   0.17856   0.91338   1.000
    H878    H    0.84564   0.26149   0.89061   1.000
    H879    H    0.85863   0.23390   0.90558   1.000
    H880    H    0.90586   0.23576   0.86814   1.000
    H881    H    0.89317   0.26365   0.85347   1.000
    H882    H    0.88065   0.20817   0.90654   1.000
    H883    H    0.91877   0.21865   0.89057   1.000
    H884    H    0.94435   0.20244   0.90629   1.000
    H885    H    0.95724   0.17470   0.92172   1.000
    H886    H    0.90177   0.15154   0.92625   1.000
    H887    H    0.88889   0.17892   0.91073   1.000
    C888    C    0.85753   0.75610   0.38619   1.000
    C889    C    0.86477   0.74026   0.39509   1.000
    C890    C    0.88229   0.73301   0.39013   1.000
    C891    C    0.89230   0.74181   0.37563   1.000
    C892    C    0.88504   0.75773   0.36670   1.000
    C893    C    0.86759   0.76515   0.37194   1.000
    C894    C    0.88916   0.71607   0.40012   1.000
    C895    C    0.90713   0.71060   0.40058   1.000
    C896    C    0.91395   0.69381   0.41092   1.000
    C897    C    0.93320   0.69216   0.41450   1.000
    C898    C    0.94043   0.67640   0.42361   1.000
    C899    C    0.92856   0.66185   0.42936   1.000
    C900    C    0.90929   0.66351   0.42596   1.000
    C901    C    0.90205   0.67923   0.41674   1.000
    H902    H    0.84395   0.76109   0.39053   1.000
    H903    H    0.85662   0.73368   0.40602   1.000
    H904    H    0.90558   0.73638   0.37091   1.000
    H905    H    0.89316   0.76418   0.35572   1.000
    H906    H    0.87893   0.70841   0.40817   1.000
    H907    H    0.91758   0.71911   0.39376   1.000
    H908    H    0.94273   0.70308   0.41015   1.000
    H909    H    0.95535   0.67554   0.42611   1.000
    H910    H    0.89987   0.65233   0.42988   1.000
    H911    H    0.88722   0.67952   0.41381   1.000
    C912    C    0.39192   0.25845   0.36196   1.000
    C913    C    0.40127   0.24332   0.37006   1.000
    C914    C    0.39426   0.23470   0.38618   1.000
    C915    C    0.37783   0.24183   0.39431   1.000
    C916    C    0.36845   0.25697   0.38619   1.000
    C917    C    0.37535   0.26547   0.36988   1.000
    C918    C    0.40470   0.21869   0.39425   1.000
    C919    C    0.39677   0.20575   0.40523   1.000
    C920    C    0.40696   0.18942   0.41298   1.000
    C921    C    0.39654   0.17391   0.41890   1.000
    C922    C    0.40542   0.15829   0.42657   1.000
    C923    C    0.42495   0.15788   0.42862   1.000
    C924    C    0.43545   0.17336   0.42274   1.000
    C925    C    0.42655   0.18906   0.41510   1.000
    H926    H    0.39784   0.26461   0.34951   1.000
    H927    H    0.41399   0.23823   0.36363   1.000
    H928    H    0.37229   0.23601   0.40711   1.000
    H929    H    0.35585   0.26200   0.39282   1.000
    H930    H    0.41913   0.21705   0.39006   1.000
    H931    H    0.38191   0.20646   0.40795   1.000
    H932    H    0.38145   0.17384   0.41749   1.000
    H933    H    0.39700   0.14644   0.43077   1.000
    H934    H    0.45050   0.17348   0.42442   1.000
    H935    H    0.43507   0.20094   0.41129   1.000
    C936    C    0.35975   0.75647   0.88870   1.000
    C937    C    0.36741   0.74068   0.89735   1.000
    C938    C    0.38421   0.73288   0.89097   1.000
    C939    C    0.39305   0.74103   0.87540   1.000
    C940    C    0.38539   0.75686   0.86674   1.000
    C941    C    0.36866   0.76484   0.87331   1.000
    C942    C    0.39158   0.71599   0.90061   1.000
    C943    C    0.40943   0.71024   0.89957   1.000
    C944    C    0.41672   0.69339   0.90936   1.000
    C945    C    0.43612   0.69158   0.91187   1.000
    C946    C    0.44368   0.67575   0.92058   1.000
    C947    C    0.43197   0.66136   0.92697   1.000
    C948    C    0.41257   0.66311   0.92448   1.000
    C949    C    0.40501   0.67887   0.91567   1.000
    H950    H    0.34680   0.76198   0.89417   1.000
    H951    H    0.36018   0.73459   0.90916   1.000
    H952    H    0.40569   0.73512   0.86961   1.000
    H953    H    0.39263   0.76274   0.85486   1.000
    H954    H    0.38195   0.70861   0.90959   1.000
    H955    H    0.41944   0.71855   0.89190   1.000
    H956    H    0.44548   0.70246   0.90707   1.000
    H957    H    0.45869   0.67477   0.92237   1.000
    H958    H    0.40326   0.65202   0.92888   1.000
    H959    H    0.39006   0.67929   0.91346   1.000
    C960    C    0.14217   0.74400   0.88627   1.000
    C961    C    0.13474   0.75964   0.89522   1.000
    C962    C    0.11702   0.76657   0.89036   1.000
    C963    C    0.10702   0.75768   0.87594   1.000
    C964    C    0.11446   0.74196   0.86697   1.000
    C965    C    0.13209   0.73484   0.87212   1.000
    C966    C    0.10993   0.78331   0.90035   1.000
    C967    C    0.09186   0.78842   0.90082   1.000
    C968    C    0.08480   0.80510   0.91100   1.000
    C969    C    0.06551   0.80659   0.91429   1.000
    C970    C    0.05807   0.82229   0.92321   1.000
    C971    C    0.06979   0.83687   0.92908   1.000
    C972    C    0.08910   0.83540   0.92594   1.000
    C973    C    0.09654   0.81978   0.91689   1.000
    H974    H    0.15590   0.73923   0.89049   1.000
    H975    H    0.14288   0.76633   0.90608   1.000
    H976    H    0.09359   0.76288   0.87128   1.000
    H977    H    0.10632   0.73539   0.85608   1.000
    H978    H    0.12008   0.79111   0.90835   1.000
    H979    H    0.08152   0.77975   0.89405   1.000
    H980    H    0.05611   0.79559   0.90987   1.000
    H981    H    0.04312   0.82306   0.92550   1.000
    H982    H    0.09840   0.84664   0.92997   1.000
    H983    H    0.11139   0.81964   0.91417   1.000
    C984    C    0.10544   0.23471   0.36853   1.000
    C985    C    0.09658   0.25029   0.37621   1.000
    C986    C    0.10620   0.26236   0.38823   1.000
    C987    C    0.12499   0.25828   0.39267   1.000
    C988    C    0.13391   0.24265   0.38493   1.000
    C989    C    0.12426   0.23067   0.37273   1.000
    C990    C    0.09583   0.27859   0.39606   1.000
    C991    C    0.10402   0.29345   0.40403   1.000
    C992    C    0.09370   0.30983   0.41167   1.000
    C993    C    0.10407   0.32563   0.41693   1.000
    C994    C    0.09526   0.34127   0.42458   1.000
    C995    C    0.07580   0.34154   0.42716   1.000
    C996    C    0.06531   0.32589   0.42179   1.000
    C997    C    0.07413   0.31013   0.41426   1.000
    H998    H    0.09739   0.22592   0.35930   1.000
    H999    H    0.08208   0.25295   0.37264   1.000
    H1000   H    0.13286   0.26683   0.40229   1.000
    H1001   H    0.14833   0.23998   0.38864   1.000
    H1002   H    0.08083   0.27838   0.39438   1.000
    H1003   H    0.11911   0.29414   0.40455   1.000
    H1004   H    0.11911   0.32588   0.41515   1.000
    H1005   H    0.10368   0.35324   0.42840   1.000
    H1006   H    0.05031   0.32567   0.42383   1.000
    H1007   H    0.06548   0.29826   0.41087   1.000
    C1008   C    0.60830   0.74012   0.36624   1.000
    C1009   C    0.59893   0.75510   0.37443   1.000
    C1010   C    0.60707   0.76506   0.38916   1.000
    C1011   C    0.62473   0.75937   0.39588   1.000
    C1012   C    0.63415   0.74432   0.38764   1.000
    C1013   C    0.62609   0.73459   0.37263   1.000
    C1014   C    0.59642   0.78095   0.39714   1.000
    C1015   C    0.60424   0.79475   0.40705   1.000
    C1016   C    0.59369   0.81111   0.41423   1.000
    C1017   C    0.60379   0.82705   0.41950   1.000
    C1018   C    0.59462   0.84272   0.42661   1.000
    C1019   C    0.57510   0.84280   0.42868   1.000
    C1020   C    0.56489   0.82696   0.42334   1.000
    C1021   C    0.57407   0.81119   0.41633   1.000
    H1022   H    0.60138   0.73286   0.35497   1.000
    H1023   H    0.58527   0.75901   0.36911   1.000
    H1024   H    0.63127   0.76626   0.40761   1.000
    H1025   H    0.64777   0.74041   0.39301   1.000
    H1026   H    0.58173   0.78174   0.39360   1.000
    H1027   H    0.61922   0.79476   0.40923   1.000
    H1028   H    0.61886   0.82740   0.41807   1.000
    H1029   H    0.60282   0.85484   0.43045   1.000
    H1030   H    0.54985   0.82661   0.42507   1.000
    H1031   H    0.56573   0.79906   0.41301   1.000
    C1032   C    0.60505   0.23597   0.86976   1.000
    C1033   C    0.59546   0.25060   0.87834   1.000
    C1034   C    0.60483   0.26300   0.89020   1.000
    C1035   C    0.62401   0.26018   0.89372   1.000
    C1036   C    0.63363   0.24547   0.88515   1.000
    C1037   C    0.62428   0.23326   0.87296   1.000
    C1038   C    0.59397   0.27830   0.89891   1.000
    C1039   C    0.60162   0.29459   0.90407   1.000
    C1040   C    0.59106   0.31042   0.91241   1.000
    C1041   C    0.60130   0.32578   0.91900   1.000
    C1042   C    0.59225   0.34107   0.92701   1.000
    C1043   C    0.57269   0.34141   0.92861   1.000
    C1044   C    0.56234   0.32623   0.92183   1.000
    C1045   C    0.57138   0.31087   0.91382   1.000
    H1046   H    0.59722   0.22677   0.86071   1.000
    H1047   H    0.58066   0.25235   0.87554   1.000
    H1048   H    0.63159   0.26909   0.90328   1.000
    H1049   H    0.64839   0.24378   0.88805   1.000
    H1050   H    0.57913   0.27604   0.90031   1.000
    H1051   H    0.61645   0.29668   0.90194   1.000
    H1052   H    0.61641   0.32596   0.91798   1.000
    H1053   H    0.60058   0.35276   0.93180   1.000
    H1054   H    0.54724   0.32614   0.92294   1.000
    H1055   H    0.56274   0.29962   0.90875   1.000
    C1056   C    0.89280   0.73791   0.13575   1.000
    C1057   C    0.90192   0.75316   0.12767   1.000
    C1058   C    0.89375   0.76306   0.11281   1.000
    C1059   C    0.87633   0.75706   0.10589   1.000
    C1060   C    0.86717   0.74180   0.11400   1.000
    C1061   C    0.87523   0.73207   0.12911   1.000
    C1062   C    0.90408   0.77918   0.10477   1.000
    C1063   C    0.89595   0.79280   0.09467   1.000
    C1064   C    0.90610   0.80918   0.08691   1.000
    C1065   C    0.89560   0.82469   0.08089   1.000
    C1066   C    0.90437   0.84032   0.07316   1.000
    C1067   C    0.92391   0.84081   0.07123   1.000
    C1068   C    0.93449   0.82536   0.07724   1.000
    C1069   C    0.92571   0.80964   0.08488   1.000
    H1070   H    0.89963   0.73080   0.14723   1.000
    H1071   H    0.91541   0.75732   0.13316   1.000
    H1072   H    0.86978   0.76384   0.09404   1.000
    H1073   H    0.85378   0.73768   0.10833   1.000
    H1074   H    0.91876   0.78017   0.10823   1.000
    H1075   H    0.88097   0.79256   0.09258   1.000
    H1076   H    0.88051   0.82475   0.08221   1.000
    H1077   H    0.89587   0.85213   0.06886   1.000
    H1078   H    0.94955   0.82529   0.07567   1.000
    H1079   H    0.93437   0.79785   0.08877   1.000
    C1080   C    0.85731   0.24674   0.61270   1.000
    C1081   C    0.86486   0.26229   0.60362   1.000
    C1082   C    0.88263   0.26902   0.60844   1.000
    C1083   C    0.89260   0.26000   0.62288   1.000
    C1084   C    0.88506   0.24439   0.63193   1.000
    C1085   C    0.86735   0.23754   0.62692   1.000
    C1086   C    0.88985   0.28574   0.59847   1.000
    C1087   C    0.90797   0.29061   0.59805   1.000
    C1088   C    0.91517   0.30739   0.58814   1.000
    C1089   C    0.93443   0.30858   0.58456   1.000
    C1090   C    0.94197   0.32433   0.57579   1.000
    C1091   C    0.93037   0.33927   0.57038   1.000
    C1092   C    0.91110   0.33814   0.57390   1.000
    C1093   C    0.90357   0.32246   0.58279   1.000
    H1094   H    0.84367   0.24187   0.60837   1.000
    H1095   H    0.85679   0.26904   0.59268   1.000
    H1096   H    0.90604   0.26507   0.62754   1.000
    H1097   H    0.89306   0.23788   0.64303   1.000
    H1098   H    0.87976   0.29380   0.59056   1.000
    H1099   H    0.91825   0.28164   0.60465   1.000
    H1100   H    0.94372   0.29728   0.58862   1.000
    H1101   H    0.95687   0.32483   0.57321   1.000
    H1102   H    0.90191   0.34965   0.57025   1.000
    H1103   H    0.88878   0.32255   0.58580   1.000
    C1104   C    0.39277   0.74092   0.63986   1.000
    C1105   C    0.40233   0.75601   0.63197   1.000
    C1106   C    0.39562   0.76475   0.61572   1.000
    C1107   C    0.37930   0.75775   0.60723   1.000
    C1108   C    0.36974   0.74265   0.61513   1.000
    C1109   C    0.37631   0.73408   0.63158   1.000
    C1110   C    0.40623   0.78072   0.60784   1.000
    C1111   C    0.39844   0.79380   0.59681   1.000
    C1112   C    0.40872   0.81002   0.58899   1.000
    C1113   C    0.39832   0.82537   0.58247   1.000
    C1114   C    0.40722   0.84080   0.57454   1.000
    C1115   C    0.42677   0.84121   0.57281   1.000
    C1116   C    0.43726   0.82590   0.57936   1.000
    C1117   C    0.42835   0.81039   0.58727   1.000
    H1118   H    0.39830   0.73477   0.65253   1.000
    H1119   H    0.41494   0.76100   0.63870   1.000
    H1120   H    0.37401   0.76361   0.59432   1.000
    H1121   H    0.35732   0.73763   0.60814   1.000
    H1122   H    0.42066   0.78214   0.61215   1.000
    H1123   H    0.38358   0.79321   0.59398   1.000
    H1124   H    0.38321   0.82547   0.58356   1.000
    H1125   H    0.39878   0.85252   0.56986   1.000
    H1126   H    0.45234   0.82576   0.57796   1.000
    H1127   H    0.43688   0.79865   0.59158   1.000
    C1128   C    0.35787   0.24642   0.11117   1.000
    C1129   C    0.36536   0.26225   0.10255   1.000
    C1130   C    0.38257   0.26958   0.10839   1.000
    C1131   C    0.39200   0.26092   0.12338   1.000
    C1132   C    0.38451   0.24505   0.13200   1.000
    C1133   C    0.36738   0.23754   0.12596   1.000
    C1134   C    0.38975   0.28656   0.09887   1.000
    C1135   C    0.40771   0.29193   0.09937   1.000
    C1136   C    0.41483   0.30899   0.08993   1.000
    C1137   C    0.43415   0.31063   0.08692   1.000
    C1138   C    0.44158   0.32667   0.07862   1.000
    C1139   C    0.42981   0.34144   0.07312   1.000
    C1140   C    0.41048   0.33985   0.07607   1.000
    C1141   C    0.40305   0.32388   0.08450   1.000
    H1142   H    0.34457   0.24129   0.10619   1.000
    H1143   H    0.35768   0.26875   0.09120   1.000
    H1144   H    0.40498   0.26644   0.12878   1.000
    H1145   H    0.39224   0.23874   0.14339   1.000
    H1146   H    0.37983   0.29437   0.09050   1.000
    H1147   H    0.41793   0.28321   0.10638   1.000
    H1148   H    0.44356   0.29945   0.09106   1.000
    H1149   H    0.45653   0.32753   0.07644   1.000
    H1150   H    0.40115   0.35123   0.07234   1.000
    H1151   H    0.38818   0.32359   0.08712   1.000
    C1152   C    0.10907   0.14156   0.74260   1.000
    C1153   C    0.10015   0.13403   0.75828   1.000
    C1154   C    0.10714   0.11792   0.76709   1.000
    C1155   C    0.12358   0.10972   0.76016   1.000
    C1156   C    0.13251   0.11718   0.74451   1.000
    C1157   C    0.12539   0.13319   0.73536   1.000
    C1158   C    0.09738   0.11052   0.78381   1.000
    C1159   C    0.09888   0.09269   0.78960   1.000
    C1160   C    0.08953   0.08521   0.80652   1.000
    C1161   C    0.08731   0.06577   0.80830   1.000
    C1162   C    0.07908   0.05805   0.82423   1.000
    C1163   C    0.07294   0.06962   0.83881   1.000
    C1164   C    0.07527   0.08907   0.83712   1.000
    C1165   C    0.08354   0.09679   0.82122   1.000
    H1166   H    0.10302   0.15390   0.73626   1.000
    H1167   H    0.08764   0.14079   0.76348   1.000
    H1168   H    0.12989   0.09774   0.76696   1.000
    H1169   H    0.14511   0.11028   0.73983   1.000
    H1170   H    0.08808   0.11999   0.79103   1.000
    H1171   H    0.10676   0.08282   0.78131   1.000
    H1172   H    0.09193   0.05651   0.79728   1.000
    H1173   H    0.07738   0.04302   0.82510   1.000
    H1174   H    0.07109   0.09831   0.84833   1.000
    H1175   H    0.08559   0.11176   0.82079   1.000
    C1176   C    0.13557   0.60888   0.24056   1.000
    C1177   C    0.12736   0.59978   0.25570   1.000
    C1178   C    0.11151   0.60722   0.26439   1.000
    C1179   C    0.10377   0.62395   0.25736   1.000
    C1180   C    0.11197   0.63310   0.24211   1.000
    C1181   C    0.12807   0.62574   0.23345   1.000
    C1182   C    0.10345   0.59678   0.28040   1.000
    C1183   C    0.09248   0.60455   0.29341   1.000
    C1184   C    0.08536   0.59420   0.30993   1.000
    C1185   C    0.07969   0.60449   0.32558   1.000
    C1186   C    0.07274   0.59545   0.34141   1.000
    C1187   C    0.07116   0.57586   0.34192   1.000
    C1188   C    0.07683   0.56549   0.32630   1.000
    C1189   C    0.08374   0.57455   0.31041   1.000
    H1190   H    0.14781   0.60242   0.23457   1.000
    H1191   H    0.13356   0.58687   0.26074   1.000
    H1192   H    0.09123   0.62990   0.26333   1.000
    H1193   H    0.10554   0.64590   0.23717   1.000
    H1194   H    0.10784   0.58238   0.28205   1.000
    H1195   H    0.08944   0.61936   0.29268   1.000
    H1196   H    0.08074   0.61960   0.32562   1.000
    H1197   H    0.06869   0.60380   0.35333   1.000
    H1198   H    0.07548   0.55040   0.32622   1.000
    H1199   H    0.08737   0.56609   0.29846   1.000
    C1200   C    0.64090   0.11052   0.24452   1.000
    C1201   C    0.63331   0.10176   0.26019   1.000
    C1202   C    0.61705   0.10869   0.26857   1.000
    C1203   C    0.60869   0.12493   0.26116   1.000
    C1204   C    0.61629   0.13376   0.24547   1.000
    C1205   C    0.63250   0.12666   0.23680   1.000
    C1206   C    0.60976   0.09894   0.28533   1.000
    C1207   C    0.59196   0.10012   0.29105   1.000
    C1208   C    0.58477   0.09021   0.30777   1.000
    C1209   C    0.56547   0.08700   0.30921   1.000
    C1210   C    0.55804   0.07816   0.32495   1.000
    C1211   C    0.56977   0.07242   0.33966   1.000
    C1212   C    0.58908   0.07563   0.33827   1.000
    C1213   C    0.59651   0.08452   0.32256   1.000
    H1214   H    0.65340   0.10445   0.23862   1.000
    H1215   H    0.64016   0.08939   0.26573   1.000
    H1216   H    0.59649   0.13110   0.26760   1.000
    H1217   H    0.60934   0.14619   0.24029   1.000
    H1218   H    0.61934   0.08970   0.29259   1.000
    H1219   H    0.58194   0.10795   0.28278   1.000
    H1220   H    0.55610   0.09134   0.29809   1.000
    H1221   H    0.54310   0.07580   0.32563   1.000
    H1222   H    0.59839   0.07176   0.34959   1.000
    H1223   H    0.61136   0.08731   0.32237   1.000
    C1224   C    0.61000   0.63943   0.74071   1.000
    C1225   C    0.60045   0.63141   0.75574   1.000
    C1226   C    0.60766   0.61563   0.76499   1.000
    C1227   C    0.62455   0.60781   0.75861   1.000
    C1228   C    0.63411   0.61584   0.74360   1.000
    C1229   C    0.62699   0.63177   0.73443   1.000
    C1230   C    0.59690   0.60749   0.78077   1.000
    C1231   C    0.60463   0.59657   0.79399   1.000
    C1232   C    0.59418   0.58843   0.80997   1.000
    C1233   C    0.60442   0.58174   0.82534   1.000
    C1234   C    0.59539   0.57358   0.84057   1.000
    C1235   C    0.57583   0.57180   0.84078   1.000
    C1236   C    0.56550   0.57846   0.82542   1.000
    C1237   C    0.57455   0.58659   0.81011   1.000
    H1238   H    0.60392   0.65159   0.73403   1.000
    H1239   H    0.58738   0.63763   0.76021   1.000
    H1240   H    0.63033   0.59529   0.76487   1.000
    H1241   H    0.64702   0.60935   0.73915   1.000
    H1242   H    0.58235   0.61145   0.78186   1.000
    H1243   H    0.61954   0.59404   0.79373   1.000
    H1244   H    0.61952   0.58290   0.82562   1.000
    H1245   H    0.60372   0.56883   0.85231   1.000
    H1246   H    0.55043   0.57704   0.82510   1.000
    H1247   H    0.56611   0.59103   0.79836   1.000
    C1248   C    0.86361   0.89182   0.73817   1.000
    C1249   C    0.87161   0.90118   0.75327   1.000
    C1250   C    0.88684   0.89346   0.76294   1.000
    C1251   C    0.89419   0.87621   0.75691   1.000
    C1252   C    0.88617   0.86681   0.74176   1.000
    C1253   C    0.87073   0.87447   0.73222   1.000
    C1254   C    0.89481   0.90410   0.77885   1.000
    C1255   C    0.90504   0.89624   0.79250   1.000
    C1256   C    0.91256   0.90671   0.80874   1.000
    C1257   C    0.91811   0.89652   0.82459   1.000
    C1258   C    0.92569   0.90557   0.84008   1.000
    C1259   C    0.92801   0.92508   0.84008   1.000
    C1260   C    0.92239   0.93538   0.82431   1.000
    C1261   C    0.91485   0.92630   0.80873   1.000
    H1262   H    0.85186   0.89836   0.73121   1.000
    H1263   H    0.86576   0.91451   0.75748   1.000
    H1264   H    0.90630   0.87002   0.76358   1.000
    H1265   H    0.89216   0.85358   0.73757   1.000
    H1266   H    0.89112   0.91874   0.77973   1.000
    H1267   H    0.90732   0.88128   0.79243   1.000
    H1268   H    0.91655   0.88145   0.82501   1.000
    H1269   H    0.92967   0.89729   0.85215   1.000
    H1270   H    0.92426   0.95040   0.82386   1.000
    H1271   H    0.91130   0.93468   0.79665   1.000
    C1272   C    0.86392   0.39162   0.24165   1.000
    C1273   C    0.87188   0.40110   0.25667   1.000
    C1274   C    0.88784   0.39410   0.26563   1.000
    C1275   C    0.89598   0.37748   0.25896   1.000
    C1276   C    0.88804   0.36794   0.24385   1.000
    C1277   C    0.87183   0.37483   0.23494   1.000
    C1278   C    0.89564   0.40482   0.28153   1.000
    C1279   C    0.90651   0.39721   0.29481   1.000
    C1280   C    0.91363   0.40772   0.31119   1.000
    C1281   C    0.91957   0.39752   0.32688   1.000
    C1282   C    0.92677   0.40665   0.34250   1.000
    C1283   C    0.92831   0.42624   0.34276   1.000
    C1284   C    0.92227   0.43654   0.32715   1.000
    C1285   C    0.91511   0.42738   0.31144   1.000
    H1286   H    0.85155   0.39771   0.23543   1.000
    H1287   H    0.86539   0.41394   0.26142   1.000
    H1288   H    0.90865   0.37190   0.26510   1.000
    H1289   H    0.89478   0.35523   0.23922   1.000
    H1290   H    0.89121   0.41923   0.28282   1.000
    H1291   H    0.90956   0.38239   0.29437   1.000
    H1292   H    0.91862   0.38240   0.32708   1.000
    H1293   H    0.93111   0.39837   0.35444   1.000
    H1294   H    0.92358   0.45163   0.32691   1.000
    H1295   H    0.91124   0.43578   0.29946   1.000
    C1296   C    0.36047   0.89265   0.24084   1.000
    C1297   C    0.36825   0.90197   0.25612   1.000
    C1298   C    0.38472   0.89542   0.26456   1.000
    C1299   C    0.39350   0.87949   0.25712   1.000
    C1300   C    0.38575   0.87014   0.24185   1.000
    C1301   C    0.36906   0.87652   0.23343   1.000
    C1302   C    0.39253   0.90586   0.28067   1.000
    C1303   C    0.40400   0.89810   0.29338   1.000
    C1304   C    0.41176   0.90826   0.30968   1.000
    C1305   C    0.41856   0.89775   0.32483   1.000
    C1306   C    0.42639   0.90658   0.34034   1.000
    C1307   C    0.42774   0.92617   0.34103   1.000
    C1308   C    0.42098   0.93675   0.32588   1.000
    C1309   C    0.41315   0.92791   0.31031   1.000
    H1310   H    0.34770   0.89827   0.23497   1.000
    H1311   H    0.36128   0.91431   0.26146   1.000
    H1312   H    0.40658   0.87434   0.26276   1.000
    H1313   H    0.39309   0.85799   0.23669   1.000
    H1314   H    0.38782   0.92012   0.28252   1.000
    H1315   H    0.40728   0.88335   0.29242   1.000
    H1316   H    0.41773   0.88263   0.32472   1.000
    H1317   H    0.43123   0.89805   0.35191   1.000
    H1318   H    0.42210   0.95185   0.32592   1.000
    H1319   H    0.40862   0.93652   0.29872   1.000
    C1320   C    0.39015   0.35926   0.74534   1.000
    C1321   C    0.39891   0.36675   0.76106   1.000
    C1322   C    0.39240   0.38340   0.76908   1.000
    C1323   C    0.37660   0.39222   0.76126   1.000
    C1324   C    0.36785   0.38474   0.74550   1.000
    C1325   C    0.37454   0.36818   0.73730   1.000
    C1326   C    0.40214   0.39066   0.78583   1.000
    C1327   C    0.40115   0.40853   0.79143   1.000
    C1328   C    0.41090   0.41571   0.80823   1.000
    C1329   C    0.41381   0.43505   0.80983   1.000
    C1330   C    0.42244   0.44248   0.82566   1.000
    C1331   C    0.42835   0.43069   0.84024   1.000
    C1332   C    0.42546   0.41135   0.83871   1.000
    C1333   C    0.41673   0.40392   0.82294   1.000
    H1334   H    0.39568   0.34641   0.73965   1.000
    H1335   H    0.41092   0.35954   0.76692   1.000
    H1336   H    0.37071   0.40473   0.76738   1.000
    H1337   H    0.35581   0.39198   0.73985   1.000
    H1338   H    0.41109   0.38095   0.79325   1.000
    H1339   H    0.39356   0.41862   0.78305   1.000
    H1340   H    0.40936   0.44447   0.79879   1.000
    H1341   H    0.42455   0.45745   0.82650   1.000
    H1342   H    0.42946   0.40200   0.84996   1.000
    H1343   H    0.41419   0.38903   0.82266   1.000
    C1344   C    0.10599   0.85847   0.25866   1.000
    C1345   C    0.09644   0.86600   0.24331   1.000
    C1346   C    0.10276   0.88240   0.23461   1.000
    C1347   C    0.11866   0.89139   0.24187   1.000
    C1348   C    0.12820   0.88389   0.25721   1.000
    C1349   C    0.12204   0.86730   0.26581   1.000
    C1350   C    0.09214   0.89001   0.21843   1.000
    C1351   C    0.09986   0.90117   0.20548   1.000
    C1352   C    0.08960   0.90902   0.18920   1.000
    C1353   C    0.10003   0.91573   0.17404   1.000
    C1354   C    0.09116   0.92380   0.15861   1.000
    C1355   C    0.07159   0.92550   0.15803   1.000
    C1356   C    0.06107   0.91875   0.17315   1.000
    C1357   C    0.06997   0.91068   0.18865   1.000
    H1358   H    0.10070   0.84575   0.26487   1.000
    H1359   H    0.08413   0.85888   0.23813   1.000
    H1360   H    0.12363   0.90442   0.23603   1.000
    H1361   H    0.14033   0.89128   0.26234   1.000
    H1362   H    0.07781   0.88549   0.21682   1.000
    H1363   H    0.11466   0.90419   0.20628   1.000
    H1364   H    0.11515   0.91470   0.17410   1.000
    H1365   H    0.09964   0.92860   0.14705   1.000
    H1366   H    0.04599   0.92011   0.17318   1.000
    H1367   H    0.06141   0.90621   0.20025   1.000
    C1368   C    0.14215   0.39014   0.75701   1.000
    C1369   C    0.13479   0.39895   0.74116   1.000
    C1370   C    0.11824   0.39251   0.73287   1.000
    C1371   C    0.10936   0.37674   0.74059   1.000
    C1372   C    0.11672   0.36793   0.75645   1.000
    C1373   C    0.13319   0.37453   0.76492   1.000
    C1374   C    0.11116   0.40218   0.71587   1.000
    C1375   C    0.09338   0.40117   0.70990   1.000
    C1376   C    0.08633   0.41072   0.69282   1.000
    C1377   C    0.06697   0.41333   0.69074   1.000
    C1378   C    0.05964   0.42172   0.67464   1.000
    C1379   C    0.07152   0.42764   0.66021   1.000
    C1380   C    0.09089   0.42502   0.66224   1.000
    C1381   C    0.09824   0.41657   0.67829   1.000
    H1382   H    0.15490   0.39565   0.76295   1.000
    H1383   H    0.14204   0.41093   0.73540   1.000
    H1384   H    0.09693   0.37089   0.73430   1.000
    H1385   H    0.10945   0.35588   0.76195   1.000
    H1386   H    0.12094   0.41108   0.70856   1.000
    H1387   H    0.08322   0.39364   0.71817   1.000
    H1388   H    0.05746   0.40887   0.70162   1.000
    H1389   H    0.04465   0.42363   0.67350   1.000
    H1390   H    0.10036   0.42906   0.65115   1.000
    H1391   H    0.11316   0.41426   0.67894   1.000
    C1392   C    0.60786   0.86402   0.76131   1.000
    C1393   C    0.59804   0.87217   0.74651   1.000
    C1394   C    0.60540   0.88757   0.73688   1.000
    C1395   C    0.62260   0.89508   0.74280   1.000
    C1396   C    0.63244   0.88693   0.75766   1.000
    C1397   C    0.62527   0.87119   0.76697   1.000
    C1398   C    0.59455   0.89546   0.72102   1.000
    C1399   C    0.60233   0.90538   0.70715   1.000
    C1400   C    0.59184   0.91276   0.69079   1.000
    C1401   C    0.60207   0.91862   0.67514   1.000
    C1402   C    0.59300   0.92607   0.65953   1.000
    C1403   C    0.57345   0.92789   0.65920   1.000
    C1404   C    0.56311   0.92193   0.67475   1.000
    C1405   C    0.57220   0.91456   0.69046   1.000
    H1406   H    0.60169   0.85214   0.76833   1.000
    H1407   H    0.58471   0.86626   0.74243   1.000
    H1408   H    0.62847   0.90735   0.73619   1.000
    H1409   H    0.64574   0.89289   0.76168   1.000
    H1410   H    0.57989   0.89190   0.72035   1.000
    H1411   H    0.61731   0.90751   0.70717   1.000
    H1412   H    0.61718   0.91743   0.67497   1.000
    H1413   H    0.60130   0.93035   0.64763   1.000
    H1414   H    0.54804   0.92341   0.67491   1.000
    H1415   H    0.56375   0.91075   0.70236   1.000
    C1416   C    0.60928   0.36254   0.26073   1.000
    C1417   C    0.59998   0.37071   0.24562   1.000
    C1418   C    0.60679   0.38705   0.23727   1.000
    C1419   C    0.62301   0.39536   0.24466   1.000
    C1420   C    0.63234   0.38723   0.25987   1.000
    C1421   C    0.62569   0.37060   0.26813   1.000
    C1422   C    0.59629   0.39510   0.22125   1.000
    C1423   C    0.60404   0.40625   0.20834   1.000
    C1424   C    0.59373   0.41365   0.19189   1.000
    C1425   C    0.60402   0.41935   0.17624   1.000
    C1426   C    0.59502   0.42671   0.16054   1.000
    C1427   C    0.57547   0.42872   0.16017   1.000
    C1428   C    0.56509   0.42300   0.17579   1.000
    C1429   C    0.57411   0.41563   0.19155   1.000
    H1430   H    0.60336   0.34991   0.26649   1.000
    H1431   H    0.58743   0.36410   0.24031   1.000
    H1432   H    0.62842   0.40828   0.23897   1.000
    H1433   H    0.64477   0.39409   0.26503   1.000
    H1434   H    0.58194   0.39064   0.21952   1.000
    H1435   H    0.61884   0.40929   0.20914   1.000
    H1436   H    0.61912   0.41802   0.17612   1.000
    H1437   H    0.60338   0.43075   0.14861   1.000
    H1438   H    0.55003   0.42465   0.17598   1.000
    H1439   H    0.56568   0.41196   0.20352   1.000
    C1440   C    0.89214   0.14055   0.25779   1.000
    C1441   C    0.90146   0.13300   0.24238   1.000
    C1442   C    0.89531   0.11632   0.23415   1.000
    C1443   C    0.87982   0.10709   0.24197   1.000
    C1444   C    0.87051   0.11461   0.25738   1.000
    C1445   C    0.87649   0.13148   0.26550   1.000
    C1446   C    0.90568   0.10873   0.21786   1.000
    C1447   C    0.89793   0.09721   0.20526   1.000
    C1448   C    0.90793   0.08956   0.18877   1.000
    C1449   C    0.89726   0.08262   0.17386   1.000
    C1450   C    0.90590   0.07477   0.15826   1.000
    C1451   C    0.92548   0.07349   0.15721   1.000
    C1452   C    0.93623   0.08046   0.17210   1.000
    C1453   C    0.92757   0.08834   0.18776   1.000
    H1454   H    0.89728   0.15350   0.26359   1.000
    H1455   H    0.91346   0.14032   0.23677   1.000
    H1456   H    0.87500   0.09386   0.23650   1.000
    H1457   H    0.85870   0.10703   0.26295   1.000
    H1458   H    0.91983   0.11362   0.21580   1.000
    H1459   H    0.88326   0.09376   0.20648   1.000
    H1460   H    0.88213   0.08332   0.17425   1.000
    H1461   H    0.89720   0.06983   0.14690   1.000
    H1462   H    0.95134   0.07944   0.17181   1.000
    H1463   H    0.93632   0.09301   0.19915   1.000
    C1464   C    0.85879   0.61093   0.75429   1.000
    C1465   C    0.86620   0.60208   0.73862   1.000
    C1466   C    0.88324   0.60791   0.73097   1.000
    C1467   C    0.89258   0.62317   0.73913   1.000
    C1468   C    0.88516   0.63205   0.75486   1.000
    C1469   C    0.86821   0.62597   0.76271   1.000
    C1470   C    0.89034   0.59801   0.71423   1.000
    C1471   C    0.90826   0.59827   0.70875   1.000
    C1472   C    0.91528   0.58816   0.69208   1.000
    C1473   C    0.93456   0.58477   0.69059   1.000
    C1474   C    0.94190   0.57582   0.67490   1.000
    C1475   C    0.93009   0.57009   0.66031   1.000
    C1476   C    0.91079   0.57338   0.66178   1.000
    C1477   C    0.90345   0.58242   0.67742   1.000
    H1478   H    0.84559   0.60596   0.75967   1.000
    H1479   H    0.85858   0.59053   0.73250   1.000
    H1480   H    0.90545   0.62853   0.73333   1.000
    H1481   H    0.89278   0.64363   0.76087   1.000
    H1482   H    0.88041   0.58943   0.70677   1.000
    H1483   H    0.91852   0.60551   0.71717   1.000
    H1484   H    0.94401   0.58911   0.70159   1.000
    H1485   H    0.95683   0.57342   0.67413   1.000
    H1486   H    0.90143   0.56950   0.65054   1.000
    H1487   H    0.88862   0.58531   0.67760   1.000
    C1488   C    0.38720   0.14010   0.75737   1.000
    C1489   C    0.39587   0.13258   0.74164   1.000
    C1490   C    0.38966   0.11571   0.73389   1.000
    C1491   C    0.37425   0.10664   0.74210   1.000
    C1492   C    0.36555   0.11419   0.75791   1.000
    C1493   C    0.37196   0.13100   0.76580   1.000
    C1494   C    0.39928   0.10862   0.71695   1.000
    C1495   C    0.39844   0.09084   0.71104   1.000
    C1496   C    0.40841   0.08393   0.69421   1.000
    C1497   C    0.41154   0.06463   0.69238   1.000
    C1498   C    0.42045   0.05744   0.67658   1.000
    C1499   C    0.42638   0.06941   0.66218   1.000
    C1500   C    0.42326   0.08872   0.66395   1.000
    C1501   C    0.41428   0.09591   0.67971   1.000
    H1502   H    0.39256   0.15312   0.76279   1.000
    H1503   H    0.40755   0.13999   0.73553   1.000
    H1504   H    0.36862   0.09391   0.73627   1.000
    H1505   H    0.35379   0.10682   0.76386   1.000
    H1506   H    0.40819   0.11842   0.70967   1.000
    H1507   H    0.39087   0.08062   0.71921   1.000
    H1508   H    0.40709   0.05505   0.70324   1.000
    H1509   H    0.42273   0.04249   0.67563   1.000
    H1510   H    0.42727   0.09823   0.65287   1.000
    H1511   H    0.41157   0.11078   0.68013   1.000
    C1512   C    0.35998   0.61382   0.25648   1.000
    C1513   C    0.36740   0.60527   0.24064   1.000
    C1514   C    0.38461   0.61100   0.23326   1.000
    C1515   C    0.39415   0.62584   0.24199   1.000
    C1516   C    0.38670   0.63442   0.25791   1.000
    C1517   C    0.36954   0.62848   0.26541   1.000
    C1518   C    0.39163   0.60146   0.21623   1.000
    C1519   C    0.40950   0.60182   0.21054   1.000
    C1520   C    0.41639   0.59197   0.19361   1.000
    C1521   C    0.43568   0.58871   0.19183   1.000
    C1522   C    0.44289   0.57994   0.17597   1.000
    C1523   C    0.43097   0.57423   0.16145   1.000
    C1524   C    0.41167   0.57743   0.16319   1.000
    C1525   C    0.40445   0.58630   0.17901   1.000
    H1526   H    0.34665   0.60890   0.26157   1.000
    H1527   H    0.35963   0.59403   0.23413   1.000
    H1528   H    0.40717   0.63111   0.23648   1.000
    H1529   H    0.39444   0.64571   0.26428   1.000
    H1530   H    0.38163   0.59305   0.20866   1.000
    H1531   H    0.41983   0.60893   0.21897   1.000
    H1532   H    0.44523   0.59299   0.20277   1.000
    H1533   H    0.45783   0.57759   0.17505   1.000
    H1534   H    0.40219   0.57356   0.15204   1.000
    H1535   H    0.38959   0.58906   0.17939   1.000
    C1536   C    0.10870   0.25930   0.86005   1.000
    C1537   C    0.09939   0.24382   0.86753   1.000
    C1538   C    0.10600   0.23497   0.88375   1.000
    C1539   C    0.12200   0.24219   0.89259   1.000
    C1540   C    0.13134   0.25764   0.88514   1.000
    C1541   C    0.12489   0.26649   0.86870   1.000
    C1542   C    0.09554   0.21870   0.89130   1.000
    C1543   C    0.10332   0.20574   0.90250   1.000
    C1544   C    0.09316   0.18935   0.91018   1.000
    C1545   C    0.10366   0.17415   0.91692   1.000
    C1546   C    0.09486   0.15859   0.92474   1.000
    C1547   C    0.07528   0.15788   0.92614   1.000
    C1548   C    0.06470   0.17306   0.91942   1.000
    C1549   C    0.07352   0.18869   0.91160   1.000
    H1550   H    0.10303   0.26549   0.84747   1.000
    H1551   H    0.08699   0.23867   0.86052   1.000
    H1552   H    0.12721   0.23623   0.90549   1.000
    H1553   H    0.14353   0.26261   0.89252   1.000
    H1554   H    0.08123   0.21701   0.88669   1.000
    H1555   H    0.11809   0.20658   0.90566   1.000
    H1556   H    0.11879   0.17429   0.91608   1.000
    H1557   H    0.10340   0.14700   0.92953   1.000
    H1558   H    0.04960   0.17301   0.92057   1.000
    H1559   H    0.06489   0.20030   0.90713   1.000
    C1560   C    0.14205   0.75667   0.39035   1.000
    C1561   C    0.13483   0.74094   0.39940   1.000
    C1562   C    0.11853   0.73227   0.39288   1.000
    C1563   C    0.10982   0.73941   0.37674   1.000
    C1564   C    0.11701   0.75515   0.36765   1.000
    C1565   C    0.13322   0.76415   0.37435   1.000
    C1566   C    0.11147   0.71554   0.40291   1.000
    C1567   C    0.09361   0.70988   0.40215   1.000
    C1568   C    0.08642   0.69314   0.41211   1.000
    C1569   C    0.06708   0.69161   0.41503   1.000
    C1570   C    0.05957   0.67582   0.42374   1.000
    C1571   C    0.07125   0.66115   0.42969   1.000
    C1572   C    0.09062   0.66265   0.42682   1.000
    C1573   C    0.09814   0.67841   0.41805   1.000
    H1574   H    0.15457   0.76285   0.39610   1.000
    H1575   H    0.14196   0.73559   0.41168   1.000
    H1576   H    0.09762   0.73274   0.37083   1.000
    H1577   H    0.10976   0.76008   0.35533   1.000
    H1578   H    0.12126   0.70827   0.41190   1.000
    H1579   H    0.08349   0.71820   0.39452   1.000
    H1580   H    0.05771   0.70267   0.41051   1.000
    H1581   H    0.04460   0.67509   0.42586   1.000
    H1582   H    0.09992   0.65136   0.43087   1.000
    H1583   H    0.11303   0.67868   0.41554   1.000
    C1584   C    0.60762   0.25820   0.36148   1.000
    C1585   C    0.59806   0.24302   0.36916   1.000
    C1586   C    0.60434   0.23449   0.38565   1.000
    C1587   C    0.62025   0.24178   0.39461   1.000
    C1588   C    0.62983   0.25701   0.38698   1.000
    C1589   C    0.62373   0.26547   0.37022   1.000
    C1590   C    0.59364   0.21845   0.39325   1.000
    C1591   C    0.60115   0.20550   0.40459   1.000
    C1592   C    0.59070   0.18920   0.41200   1.000
    C1593   C    0.60092   0.17374   0.41852   1.000
    C1594   C    0.59182   0.15827   0.42613   1.000
    C1595   C    0.57223   0.15795   0.42755   1.000
    C1596   C    0.56191   0.17335   0.42095   1.000
    C1597   C    0.57104   0.18889   0.41335   1.000
    H1598   H    0.60216   0.26412   0.34869   1.000
    H1599   H    0.58575   0.23780   0.36205   1.000
    H1600   H    0.62522   0.23600   0.40769   1.000
    H1601   H    0.64200   0.26205   0.39438   1.000
    H1602   H    0.57940   0.21682   0.38842   1.000
    H1603   H    0.61589   0.20623   0.40798   1.000
    H1604   H    0.61605   0.17360   0.41770   1.000
    H1605   H    0.60012   0.14648   0.43086   1.000
    H1606   H    0.54681   0.17355   0.42212   1.000
    H1607   H    0.56264   0.20073   0.40902   1.000
    C1608   C    0.60773   0.75919   0.86109   1.000
    C1609   C    0.59800   0.74426   0.86907   1.000
    C1610   C    0.60466   0.73553   0.88533   1.000
    C1611   C    0.62098   0.74244   0.89385   1.000
    C1612   C    0.63072   0.75735   0.88587   1.000
    C1613   C    0.62430   0.76584   0.86933   1.000
    C1614   C    0.59410   0.71953   0.89315   1.000
    C1615   C    0.60209   0.70629   0.90380   1.000
    C1616   C    0.59202   0.68990   0.91147   1.000
    C1617   C    0.60262   0.67461   0.91783   1.000
    C1618   C    0.59391   0.65899   0.92557   1.000
    C1619   C    0.57436   0.65833   0.92720   1.000
    C1620   C    0.56367   0.67356   0.92083   1.000
    C1621   C    0.57240   0.68927   0.91314   1.000
    H1622   H    0.60216   0.76549   0.84851   1.000
    H1623   H    0.58532   0.73937   0.86238   1.000
    H1624   H    0.62621   0.73656   0.90678   1.000
    H1625   H    0.64334   0.76210   0.89271   1.000
    H1626   H    0.57961   0.71821   0.88901   1.000
    H1627   H    0.61699   0.70687   0.90642   1.000
    H1628   H    0.61773   0.67472   0.91677   1.000
    H1629   H    0.60247   0.64732   0.93014   1.000
    H1630   H    0.54859   0.67347   0.92216   1.000
    H1631   H    0.56371   0.70094   0.90896   1.000
    C1632   C    0.89147   0.25785   0.14033   1.000
    C1633   C    0.90060   0.24255   0.13230   1.000
    C1634   C    0.89400   0.23460   0.11566   1.000
    C1635   C    0.87813   0.24253   0.10704   1.000
    C1636   C    0.86899   0.25784   0.11507   1.000
    C1637   C    0.87552   0.26574   0.13183   1.000
    C1638   C    0.90442   0.21858   0.10748   1.000
    C1639   C    0.89683   0.20639   0.09542   1.000
    C1640   C    0.90709   0.19025   0.08728   1.000
    C1641   C    0.89671   0.17537   0.07989   1.000
    C1642   C    0.90565   0.16004   0.07173   1.000
    C1643   C    0.92526   0.15928   0.07059   1.000
    C1644   C    0.93571   0.17419   0.07792   1.000
    C1645   C    0.92675   0.18956   0.08610   1.000
    H1646   H    0.89703   0.26346   0.15319   1.000
    H1647   H    0.91287   0.23686   0.13917   1.000
    H1648   H    0.87289   0.23726   0.09390   1.000
    H1649   H    0.85689   0.26353   0.10795   1.000
    H1650   H    0.91859   0.21638   0.11233   1.000
    H1651   H    0.88216   0.20763   0.09189   1.000
    H1652   H    0.88157   0.17553   0.08052   1.000
    H1653   H    0.89718   0.14867   0.06648   1.000
    H1654   H    0.95082   0.17413   0.07701   1.000
    H1655   H    0.93530   0.20097   0.09107   1.000
    C1656   C    0.85905   0.75225   0.61669   1.000
    C1657   C    0.86648   0.73646   0.60810   1.000
    C1658   C    0.88457   0.73023   0.61240   1.000
    C1659   C    0.89499   0.73997   0.62597   1.000
    C1660   C    0.88752   0.75589   0.63461   1.000
    C1661   C    0.86952   0.76232   0.62990   1.000
    C1662   C    0.89159   0.71338   0.60258   1.000
    C1663   C    0.90964   0.70835   0.60167   1.000
    C1664   C    0.91635   0.69167   0.59128   1.000
    C1665   C    0.93544   0.69038   0.58692   1.000
    C1666   C    0.94249   0.67476   0.57756   1.000
    C1667   C    0.93057   0.66010   0.57233   1.000
    C1668   C    0.91147   0.66137   0.57655   1.000
    C1669   C    0.90443   0.67688   0.58607   1.000
    H1670   H    0.84500   0.75644   0.61294   1.000
    H1671   H    0.85803   0.72912   0.59791   1.000
    H1672   H    0.90878   0.73536   0.63015   1.000
    H1673   H    0.89592   0.76324   0.64479   1.000
    H1674   H    0.88129   0.70540   0.59496   1.000
    H1675   H    0.92015   0.71713   0.60803   1.000
    H1676   H    0.94497   0.70146   0.59083   1.000
    H1677   H    0.95729   0.67409   0.57447   1.000
    H1678   H    0.90208   0.65003   0.57305   1.000
    H1679   H    0.88978   0.67682   0.58968   1.000
    C1680   C    0.39078   0.25850   0.63741   1.000
    C1681   C    0.39975   0.24320   0.62934   1.000
    C1682   C    0.39263   0.23489   0.61315   1.000
    C1683   C    0.37637   0.24245   0.60496   1.000
    C1684   C    0.36733   0.25781   0.61304   1.000
    C1685   C    0.37436   0.26610   0.62946   1.000
    C1686   C    0.40294   0.21881   0.60511   1.000
    C1687   C    0.39519   0.20621   0.59364   1.000
    C1688   C    0.40539   0.18970   0.58633   1.000
    C1689   C    0.39498   0.17430   0.58016   1.000
    C1690   C    0.40392   0.15851   0.57301   1.000
    C1691   C    0.42351   0.15779   0.57173   1.000
    C1692   C    0.43399   0.17319   0.57782   1.000
    C1693   C    0.42504   0.18905   0.58495   1.000
    H1694   H    0.39693   0.26419   0.64995   1.000
    H1695   H    0.41232   0.23776   0.63588   1.000
    H1696   H    0.37071   0.23682   0.59215   1.000
    H1697   H    0.35491   0.26314   0.60623   1.000
    H1698   H    0.41718   0.21675   0.60983   1.000
    H1699   H    0.38048   0.20731   0.59024   1.000
    H1700   H    0.37986   0.17442   0.58101   1.000
    H1701   H    0.39548   0.14675   0.56861   1.000
    H1702   H    0.44909   0.17313   0.57669   1.000
    H1703   H    0.43359   0.20083   0.58897   1.000
    C1704   C    0.39272   0.75948   0.14200   1.000
    C1705   C    0.40222   0.74416   0.13444   1.000
    C1706   C    0.39567   0.73538   0.11822   1.000
    C1707   C    0.37949   0.74247   0.10951   1.000
    C1708   C    0.36995   0.75774   0.11706   1.000
    C1709   C    0.37639   0.76658   0.13343   1.000
    C1710   C    0.40643   0.71940   0.11047   1.000
    C1711   C    0.39894   0.70660   0.09902   1.000
    C1712   C    0.40947   0.69065   0.09092   1.000
    C1713   C    0.39930   0.67558   0.08363   1.000
    C1714   C    0.40844   0.66050   0.07530   1.000
    C1715   C    0.42804   0.66017   0.07395   1.000
    C1716   C    0.43829   0.67521   0.08126   1.000
    C1717   C    0.42913   0.69036   0.08958   1.000
    H1718   H    0.39835   0.76564   0.15457   1.000
    H1719   H    0.41473   0.73909   0.14137   1.000
    H1720   H    0.37430   0.73659   0.09662   1.000
    H1721   H    0.35764   0.76264   0.10973   1.000
    H1722   H    0.42077   0.71785   0.11505   1.000
    H1723   H    0.38415   0.70728   0.09585   1.000
    H1724   H    0.38417   0.67544   0.08439   1.000
    H1725   H    0.40016   0.64898   0.07005   1.000
    H1726   H    0.45339   0.67543   0.08018   1.000
    H1727   H    0.43751   0.70191   0.09448   1.000
    C1728   C    0.88736   0.74342   0.85711   1.000
    C1729   C    0.89628   0.75913   0.86451   1.000
    C1730   C    0.89054   0.76680   0.88158   1.000
    C1731   C    0.87535   0.75855   0.89096   1.000
    C1732   C    0.86643   0.74281   0.88356   1.000
    C1733   C    0.87234   0.73499   0.86656   1.000
    C1734   C    0.90038   0.78366   0.88863   1.000
    C1735   C    0.89993   0.78933   0.90650   1.000
    C1736   C    0.90977   0.80622   0.91354   1.000
    C1737   C    0.91246   0.80810   0.93288   1.000
    C1738   C    0.92110   0.82399   0.94025   1.000
    C1739   C    0.92726   0.83841   0.92842   1.000
    C1740   C    0.92465   0.83657   0.90907   1.000
    C1741   C    0.91590   0.82073   0.90169   1.000
    H1742   H    0.89232   0.73802   0.84394   1.000
    H1743   H    0.90779   0.76527   0.85685   1.000
    H1744   H    0.87003   0.76432   0.90384   1.000
    H1745   H    0.85485   0.73687   0.89123   1.000
    H1746   H    0.90896   0.79113   0.87870   1.000
    H1747   H    0.89263   0.78094   0.91673   1.000
    H1748   H    0.90781   0.79724   0.94236   1.000
    H1749   H    0.92301   0.82498   0.95522   1.000
    H1750   H    0.92888   0.84765   0.89965   1.000
    H1751   H    0.91361   0.82027   0.88678   1.000
    C1752   C    0.86110   0.24112   0.39192   1.000
    C1753   C    0.86891   0.25641   0.40121   1.000
    C1754   C    0.88476   0.26547   0.39410   1.000
    C1755   C    0.89287   0.25864   0.37757   1.000
    C1756   C    0.88506   0.24334   0.36826   1.000
    C1757   C    0.86906   0.23436   0.37529   1.000
    C1758   C    0.89265   0.28150   0.40465   1.000
    C1759   C    0.90377   0.29451   0.39698   1.000
    C1760   C    0.91166   0.31069   0.40732   1.000
    C1761   C    0.91860   0.32586   0.39698   1.000
    C1762   C    0.92657   0.34123   0.40593   1.000
    C1763   C    0.92791   0.34179   0.42550   1.000
    C1764   C    0.92097   0.32666   0.43593   1.000
    C1765   C    0.91303   0.31120   0.42695   1.000
    H1766   H    0.84886   0.23464   0.39791   1.000
    H1767   H    0.86245   0.26123   0.41400   1.000
    H1768   H    0.90545   0.26476   0.37189   1.000
    H1769   H    0.89174   0.23854   0.35561   1.000
    H1770   H    0.88834   0.28295   0.41904   1.000
    H1771   H    0.90672   0.29389   0.38218   1.000
    H1772   H    0.91779   0.32586   0.38187   1.000
    H1773   H    0.93155   0.35280   0.39752   1.000
    H1774   H    0.92205   0.32660   0.45101   1.000
    H1775   H    0.90840   0.29962   0.43549   1.000
    C1776   C    0.36414   0.74056   0.39080   1.000
    C1777   C    0.37225   0.75564   0.40004   1.000
    C1778   C    0.38826   0.76431   0.39296   1.000
    C1779   C    0.39626   0.75731   0.37644   1.000
    C1780   C    0.38816   0.74211   0.36713   1.000
    C1781   C    0.37191   0.73347   0.37415   1.000
    C1782   C    0.39622   0.78022   0.40358   1.000
    C1783   C    0.40736   0.79327   0.39608   1.000
    C1784   C    0.41444   0.80966   0.40662   1.000
    C1785   C    0.42035   0.82540   0.39653   1.000
    C1786   C    0.42738   0.84107   0.40574   1.000
    C1787   C    0.42881   0.84133   0.42533   1.000
    C1788   C    0.42282   0.82565   0.43551   1.000
    C1789   C    0.41583   0.80991   0.42628   1.000
    H1790   H    0.35176   0.73460   0.39700   1.000
    H1791   H    0.36584   0.76064   0.41279   1.000
    H1792   H    0.40893   0.76327   0.37077   1.000
    H1793   H    0.39478   0.73719   0.35450   1.000
    H1794   H    0.39163   0.78176   0.41788   1.000
    H1795   H    0.41062   0.79265   0.38135   1.000
    H1796   H    0.41948   0.82561   0.38142   1.000
    H1797   H    0.43167   0.85305   0.39752   1.000
    H1798   H    0.42403   0.82538   0.45059   1.000
    H1799   H    0.41198   0.79789   0.43460   1.000
    C1800   C    0.38728   0.24683   0.86020   1.000
    C1801   C    0.39604   0.26263   0.86753   1.000
    C1802   C    0.39022   0.27030   0.88457   1.000
    C1803   C    0.37505   0.26200   0.89394   1.000
    C1804   C    0.36627   0.24616   0.88661   1.000
    C1805   C    0.37234   0.23829   0.86968   1.000
    C1806   C    0.39993   0.28723   0.89158   1.000
    C1807   C    0.39957   0.29281   0.90946   1.000
    C1808   C    0.40947   0.30966   0.91645   1.000
    C1809   C    0.41269   0.31132   0.93573   1.000
    C1810   C    0.42151   0.32713   0.94302   1.000
    C1811   C    0.42728   0.34171   0.93118   1.000
    C1812   C    0.42406   0.34012   0.91190   1.000
    C1813   C    0.41516   0.32435   0.90460   1.000
    H1814   H    0.39229   0.24143   0.84705   1.000
    H1815   H    0.40751   0.26885   0.85986   1.000
    H1816   H    0.36967   0.26780   0.90678   1.000
    H1817   H    0.35476   0.24011   0.89428   1.000
    H1818   H    0.40847   0.29475   0.88164   1.000
    H1819   H    0.39238   0.28436   0.91972   1.000
    H1820   H    0.40837   0.30031   0.94520   1.000
    H1821   H    0.42387   0.32796   0.95794   1.000
    H1822   H    0.42797   0.35133   0.90249   1.000
    H1823   H    0.41240   0.32406   0.88976   1.000
    C1824   C    0.14001   0.74204   0.11298   1.000
    C1825   C    0.13245   0.75786   0.10431   1.000
    C1826   C    0.11613   0.76625   0.11112   1.000
    C1827   C    0.10767   0.75866   0.12716   1.000
    C1828   C    0.11525   0.74280   0.13592   1.000
    C1829   C    0.13154   0.73415   0.12894   1.000
    C1830   C    0.10889   0.78315   0.10134   1.000
    C1831   C    0.09115   0.78919   0.10246   1.000
    C1832   C    0.08397   0.80584   0.09220   1.000
    C1833   C    0.06462   0.80756   0.08929   1.000
    C1834   C    0.05718   0.82317   0.08008   1.000
    C1835   C    0.06894   0.83751   0.07363   1.000
    C1836   C    0.08831   0.83585   0.07652   1.000
    C1837   C    0.09575   0.82026   0.08579   1.000
    H1838   H    0.15256   0.73619   0.10699   1.000
    H1839   H    0.13938   0.76350   0.09210   1.000
    H1840   H    0.09539   0.76504   0.13322   1.000
    H1841   H    0.10825   0.73747   0.14819   1.000
    H1842   H    0.11848   0.79021   0.09205   1.000
    H1843   H    0.08112   0.78118   0.11045   1.000
    H1844   H    0.05520   0.79675   0.09414   1.000
    H1845   H    0.04221   0.82402   0.07798   1.000
    H1846   H    0.09767   0.84688   0.07210   1.000
    H1847   H    0.11066   0.81989   0.08828   1.000
    C1848   C    0.13993   0.24002   0.60769   1.000
    C1849   C    0.13240   0.25537   0.59819   1.000
    C1850   C    0.11640   0.26448   0.60486   1.000
    C1851   C    0.10782   0.25763   0.62116   1.000
    C1852   C    0.11535   0.24227   0.63072   1.000
    C1853   C    0.13157   0.23318   0.62418   1.000
    C1854   C    0.10890   0.28065   0.59414   1.000
    C1855   C    0.09794   0.29386   0.60168   1.000
    C1856   C    0.09059   0.31029   0.59125   1.000
    C1857   C    0.08410   0.32566   0.60152   1.000
    C1858   C    0.07654   0.34126   0.59248   1.000
    C1859   C    0.07516   0.34183   0.57291   1.000
    C1860   C    0.08174   0.32654   0.56255   1.000
    C1861   C    0.08929   0.31086   0.57161   1.000
    H1862   H    0.15235   0.23365   0.60193   1.000
    H1863   H    0.13922   0.26025   0.58559   1.000
    H1864   H    0.09510   0.26383   0.62647   1.000
    H1865   H    0.10821   0.23755   0.64316   1.000
    H1866   H    0.11344   0.28208   0.57982   1.000
    H1867   H    0.09480   0.29323   0.61645   1.000
    H1868   H    0.08488   0.32562   0.61663   1.000
    H1869   H    0.07181   0.35295   0.60084   1.000
    H1870   H    0.08060   0.32652   0.54746   1.000
    H1871   H    0.09361   0.29913   0.56315   1.000
    C1872   C    0.63828   0.73866   0.60498   1.000
    C1873   C    0.63054   0.75410   0.59577   1.000
    C1874   C    0.61463   0.76308   0.60286   1.000
    C1875   C    0.60631   0.75597   0.61919   1.000
    C1876   C    0.61405   0.74051   0.62841   1.000
    C1877   C    0.63020   0.73169   0.62149   1.000
    C1878   C    0.60694   0.77944   0.59259   1.000
    C1879   C    0.59633   0.79260   0.60069   1.000
    C1880   C    0.58875   0.80922   0.59076   1.000
    C1881   C    0.58259   0.82443   0.60146   1.000
    C1882   C    0.57489   0.84022   0.59290   1.000
    C1883   C    0.57305   0.84115   0.57339   1.000
    C1884   C    0.57925   0.82600   0.56259   1.000
    C1885   C    0.58692   0.81013   0.57117   1.000
    H1886   H    0.65065   0.73230   0.59909   1.000
    H1887   H    0.63713   0.75916   0.58312   1.000
    H1888   H    0.59365   0.76204   0.62478   1.000
    H1889   H    0.60722   0.73548   0.64090   1.000
    H1890   H    0.61110   0.78108   0.57817   1.000
    H1891   H    0.59369   0.79175   0.61554   1.000
    H1892   H    0.58378   0.82411   0.61655   1.000
    H1893   H    0.57046   0.85180   0.60157   1.000
    H1894   H    0.57775   0.82627   0.54754   1.000
    H1895   H    0.59095   0.79853   0.56239   1.000
    C1896   C    0.61177   0.24313   0.14282   1.000
    C1897   C    0.60276   0.25899   0.13573   1.000
    C1898   C    0.60804   0.26673   0.11853   1.000
    C1899   C    0.62289   0.25839   0.10867   1.000
    C1900   C    0.63193   0.24248   0.11578   1.000
    C1901   C    0.62646   0.23459   0.13293   1.000
    C1902   C    0.59812   0.28378   0.11184   1.000
    C1903   C    0.59788   0.28948   0.09395   1.000
    C1904   C    0.58785   0.30649   0.08727   1.000
    C1905   C    0.58424   0.30837   0.06807   1.000
    C1906   C    0.57551   0.32440   0.06099   1.000
    C1907   C    0.57020   0.33901   0.07295   1.000
    C1908   C    0.57364   0.33714   0.09218   1.000
    C1909   C    0.58247   0.32113   0.09928   1.000
    H1910   H    0.60717   0.23771   0.15614   1.000
    H1911   H    0.59153   0.26521   0.14375   1.000
    H1912   H    0.62785   0.26422   0.09565   1.000
    H1913   H    0.64322   0.23644   0.10777   1.000
    H1914   H    0.58999   0.29132   0.12208   1.000
    H1915   H    0.60472   0.28104   0.08347   1.000
    H1916   H    0.58827   0.29740   0.05847   1.000
    H1917   H    0.57294   0.32540   0.04611   1.000
    H1918   H    0.57007   0.34834   0.10169   1.000
    H1919   H    0.58547   0.32064   0.11407   1.000
    C1920   C    0.25484   0.14182   0.88782   1.000
    C1921   C    0.23904   0.13423   0.89640   1.000
    C1922   C    0.23220   0.11662   0.89117   1.000
    C1923   C    0.24142   0.10688   0.87678   1.000
    C1924   C    0.25728   0.11448   0.86819   1.000
    C1925   C    0.26425   0.13202   0.87365   1.000
    C1926   C    0.21521   0.10938   0.90071   1.000
    C1927   C    0.20988   0.09136   0.90054   1.000
    C1928   C    0.19293   0.08417   0.91022   1.000
    C1929   C    0.19127   0.06479   0.91310   1.000
    C1930   C    0.17539   0.05727   0.92164   1.000
    C1931   C    0.16075   0.06896   0.92754   1.000
    C1932   C    0.16235   0.08834   0.92469   1.000
    C1933   C    0.17817   0.09587   0.91605   1.000
    H1934   H    0.25952   0.15545   0.89232   1.000
    H1935   H    0.23214   0.14217   0.90725   1.000
    H1936   H    0.23638   0.09354   0.87185   1.000
    H1937   H    0.26405   0.10651   0.85731   1.000
    H1938   H    0.20733   0.11936   0.90886   1.000
    H1939   H    0.21858   0.08110   0.89363   1.000
    H1940   H    0.20232   0.05541   0.90871   1.000
    H1941   H    0.17459   0.04228   0.92371   1.000
    H1942   H    0.15110   0.09765   0.92871   1.000
    H1943   H    0.17844   0.11079   0.91361   1.000
    C1944   C    0.25257   0.64330   0.38497   1.000
    C1945   C    0.23674   0.63607   0.39370   1.000
    C1946   C    0.23064   0.61786   0.38990   1.000
    C1947   C    0.24047   0.60714   0.37666   1.000
    C1948   C    0.25636   0.61439   0.36790   1.000
    C1949   C    0.26269   0.63249   0.37209   1.000
    C1950   C    0.21376   0.61094   0.39970   1.000
    C1951   C    0.20950   0.59277   0.40161   1.000
    C1952   C    0.19271   0.58574   0.41159   1.000
    C1953   C    0.19137   0.56645   0.41511   1.000
    C1954   C    0.17564   0.55899   0.42391   1.000
    C1955   C    0.16092   0.57071   0.42949   1.000
    C1956   C    0.16225   0.59001   0.42619   1.000
    C1957   C    0.17788   0.59746   0.41723   1.000
    H1958   H    0.25675   0.65743   0.38830   1.000
    H1959   H    0.22929   0.64475   0.40360   1.000
    H1960   H    0.23590   0.59328   0.37280   1.000
    H1961   H    0.26375   0.60571   0.35799   1.000
    H1962   H    0.20515   0.62144   0.40628   1.000
    H1963   H    0.21898   0.58234   0.39613   1.000
    H1964   H    0.20249   0.55706   0.41091   1.000
    H1965   H    0.17495   0.54405   0.42635   1.000
    H1966   H    0.15090   0.59928   0.43002   1.000
    H1967   H    0.17788   0.61231   0.41448   1.000
    C1968   C    0.75968   0.10688   0.36168   1.000
    C1969   C    0.74431   0.09776   0.36958   1.000
    C1970   C    0.73483   0.10549   0.38487   1.000
    C1971   C    0.74133   0.12248   0.39233   1.000
    C1972   C    0.75667   0.13161   0.38443   1.000
    C1973   C    0.76608   0.12396   0.36898   1.000
    C1974   C    0.71871   0.09516   0.39295   1.000
    C1975   C    0.70557   0.10322   0.40365   1.000
    C1976   C    0.68939   0.09312   0.41188   1.000
    C1977   C    0.67425   0.10371   0.41852   1.000
    C1978   C    0.65884   0.09500   0.42673   1.000
    C1979   C    0.65821   0.07545   0.42858   1.000
    C1980   C    0.67335   0.06479   0.42202   1.000
    C1981   C    0.68884   0.07351   0.41386   1.000
    H1982   H    0.76657   0.10039   0.34993   1.000
    H1983   H    0.73976   0.08460   0.36365   1.000
    H1984   H    0.73492   0.12868   0.40449   1.000
    H1985   H    0.76113   0.14465   0.39058   1.000
    H1986   H    0.71737   0.08058   0.38920   1.000
    H1987   H    0.70610   0.11814   0.40602   1.000
    H1988   H    0.67430   0.11881   0.41728   1.000
    H1989   H    0.64728   0.10359   0.43141   1.000
    H1990   H    0.67336   0.04972   0.42352   1.000
    H1991   H    0.70040   0.06480   0.40951   1.000
    C1992   C    0.76589   0.60495   0.87156   1.000
    C1993   C    0.75113   0.59553   0.88010   1.000
    C1994   C    0.73824   0.60521   0.89119   1.000
    C1995   C    0.74078   0.62451   0.89411   1.000
    C1996   C    0.75572   0.63394   0.88571   1.000
    C1997   C    0.76830   0.62427   0.87417   1.000
    C1998   C    0.72269   0.59458   0.89973   1.000
    C1999   C    0.70594   0.60219   0.90341   1.000
    C2000   C    0.68991   0.59174   0.91147   1.000
    C2001   C    0.67466   0.60207   0.91822   1.000
    C2002   C    0.65922   0.59307   0.92601   1.000
    C2003   C    0.65862   0.57345   0.92725   1.000
    C2004   C    0.67366   0.56303   0.92016   1.000
    C2005   C    0.68913   0.57204   0.91231   1.000
    H2006   H    0.77552   0.59699   0.86305   1.000
    H2007   H    0.74962   0.58063   0.87783   1.000
    H2008   H    0.73144   0.63232   0.90306   1.000
    H2009   H    0.75726   0.64881   0.88803   1.000
    H2010   H    0.72515   0.57989   0.90231   1.000
    H2011   H    0.70372   0.61687   0.90038   1.000
    H2012   H    0.67471   0.61721   0.91756   1.000
    H2013   H    0.64766   0.60151   0.93095   1.000
    H2014   H    0.67358   0.54790   0.92091   1.000
    H2015   H    0.70022   0.56340   0.90683   1.000
    C2016   C    0.25544   0.85698   0.11122   1.000
    C2017   C    0.23955   0.86409   0.10227   1.000
    C2018   C    0.23189   0.88137   0.10754   1.000
    C2019   C    0.24031   0.89125   0.12229   1.000
    C2020   C    0.25623   0.88416   0.13122   1.000
    C2021   C    0.26405   0.86695   0.12578   1.000
    C2022   C    0.21482   0.88816   0.09778   1.000
    C2023   C    0.20922   0.90610   0.09776   1.000
    C2024   C    0.19200   0.91294   0.08827   1.000
    C2025   C    0.19003   0.93223   0.08504   1.000
    C2026   C    0.17383   0.93944   0.07676   1.000
    C2027   C    0.15918   0.92749   0.07153   1.000
    C2028   C    0.16109   0.90819   0.07471   1.000
    C2029   C    0.17725   0.90097   0.08309   1.000
    H2030   H    0.26084   0.84360   0.10672   1.000
    H2031   H    0.23323   0.85606   0.09113   1.000
    H2032   H    0.23456   0.90430   0.12728   1.000
    H2033   H    0.26233   0.89226   0.14240   1.000
    H2034   H    0.20710   0.87796   0.08975   1.000
    H2035   H    0.21786   0.91655   0.10442   1.000
    H2036   H    0.20108   0.94179   0.08898   1.000
    H2037   H    0.17276   0.95437   0.07440   1.000
    H2038   H    0.14984   0.89871   0.07119   1.000
    H2039   H    0.17780   0.88612   0.08586   1.000
    C2040   C    0.25638   0.38635   0.64249   1.000
    C2041   C    0.24061   0.39521   0.63508   1.000
    C2042   C    0.23337   0.38993   0.61767   1.000
    C2043   C    0.24209   0.37522   0.60795   1.000
    C2044   C    0.25792   0.36633   0.61538   1.000
    C2045   C    0.26533   0.37184   0.63272   1.000
    C2046   C    0.21652   0.39983   0.61056   1.000
    C2047   C    0.21136   0.40014   0.59252   1.000
    C2048   C    0.19461   0.41028   0.58545   1.000
    C2049   C    0.19331   0.41408   0.56624   1.000
    C2050   C    0.17758   0.42307   0.55882   1.000
    C2051   C    0.16275   0.42846   0.57047   1.000
    C2052   C    0.16402   0.42476   0.58970   1.000
    C2053   C    0.17970   0.41566   0.59711   1.000
    H2054   H    0.26142   0.39094   0.65596   1.000
    H2055   H    0.23408   0.40636   0.64298   1.000
    H2056   H    0.23666   0.37028   0.59476   1.000
    H2057   H    0.26432   0.35518   0.60745   1.000
    H2058   H    0.20869   0.40791   0.62061   1.000
    H2059   H    0.22010   0.39337   0.58224   1.000
    H2060   H    0.20449   0.41002   0.55690   1.000
    H2061   H    0.17698   0.42581   0.54395   1.000
    H2062   H    0.15260   0.42837   0.59893   1.000
    H2063   H    0.17972   0.41248   0.61187   1.000
    C2064   C    0.75796   0.86192   0.60787   1.000
    C2065   C    0.74278   0.87001   0.59859   1.000
    C2066   C    0.73442   0.88634   0.60543   1.000
    C2067   C    0.74182   0.89470   0.62160   1.000
    C2068   C    0.75701   0.88661   0.63089   1.000
    C2069   C    0.76527   0.87009   0.62417   1.000
    C2070   C    0.71840   0.89444   0.59505   1.000
    C2071   C    0.70565   0.90562   0.60297   1.000
    C2072   C    0.68938   0.91348   0.59282   1.000
    C2073   C    0.67391   0.91946   0.60322   1.000
    C2074   C    0.65836   0.92726   0.59434   1.000
    C2075   C    0.65801   0.92937   0.57483   1.000
    C2076   C    0.67347   0.92343   0.56436   1.000
    C2077   C    0.68909   0.91566   0.57325   1.000
    H2078   H    0.76391   0.84929   0.60211   1.000
    H2079   H    0.73746   0.86339   0.58608   1.000
    H2080   H    0.73619   0.90765   0.62698   1.000
    H2081   H    0.76227   0.89344   0.64327   1.000
    H2082   H    0.71661   0.89012   0.58069   1.000
    H2083   H    0.70649   0.90845   0.61779   1.000
    H2084   H    0.67380   0.91800   0.61828   1.000
    H2085   H    0.64652   0.93149   0.60273   1.000
    H2086   H    0.67363   0.92516   0.54933   1.000
    H2087   H    0.70096   0.91180   0.56477   1.000
    C2088   C    0.76261   0.39190   0.13454   1.000
    C2089   C    0.74752   0.40119   0.12635   1.000
    C2090   C    0.73727   0.39286   0.11192   1.000
    C2091   C    0.74277   0.37506   0.10551   1.000
    C2092   C    0.75794   0.36571   0.11374   1.000
    C2093   C    0.76797   0.37398   0.12845   1.000
    C2094   C    0.72131   0.40348   0.10389   1.000
    C2095   C    0.70731   0.39558   0.09428   1.000
    C2096   C    0.69091   0.40614   0.08704   1.000
    C2097   C    0.67482   0.39608   0.08217   1.000
    C2098   C    0.65911   0.40526   0.07503   1.000
    C2099   C    0.65914   0.42475   0.07250   1.000
    C2100   C    0.67516   0.43492   0.07742   1.000
    C2101   C    0.69096   0.42572   0.08448   1.000
    H2102   H    0.77009   0.39897   0.14557   1.000
    H2103   H    0.74375   0.41495   0.13143   1.000
    H2104   H    0.73563   0.36836   0.09402   1.000
    H2105   H    0.76171   0.35200   0.10860   1.000
    H2106   H    0.72065   0.41823   0.10713   1.000
    H2107   H    0.70718   0.38058   0.09241   1.000
    H2108   H    0.67437   0.38104   0.08394   1.000
    H2109   H    0.64686   0.39709   0.07153   1.000
    H2110   H    0.67561   0.44992   0.07534   1.000
    H2111   H    0.70321   0.43402   0.08747   1.000
    C2112   C    0.74047   0.10859   0.13454   1.000
    C2113   C    0.75553   0.09945   0.12621   1.000
    C2114   C    0.76489   0.10746   0.11100   1.000
    C2115   C    0.75857   0.12483   0.10404   1.000
    C2116   C    0.74344   0.13402   0.11242   1.000
    C2117   C    0.73423   0.12604   0.12783   1.000
    C2118   C    0.78075   0.09692   0.10273   1.000
    C2119   C    0.79395   0.10466   0.09191   1.000
    C2120   C    0.81017   0.09412   0.08433   1.000
    C2121   C    0.82583   0.10424   0.07830   1.000
    C2122   C    0.84136   0.09505   0.07087   1.000
    C2123   C    0.84156   0.07547   0.06918   1.000
    C2124   C    0.82594   0.06527   0.07519   1.000
    C2125   C    0.81033   0.07448   0.08256   1.000
    H2126   H    0.73372   0.10175   0.14618   1.000
    H2127   H    0.75994   0.08603   0.13177   1.000
    H2128   H    0.76500   0.13128   0.09200   1.000
    H2129   H    0.73901   0.14737   0.10679   1.000
    H2130   H    0.78203   0.08237   0.10669   1.000
    H2131   H    0.79356   0.11955   0.08922   1.000
    H2132   H    0.82611   0.11935   0.07943   1.000
    H2133   H    0.85330   0.10328   0.06655   1.000
    H2134   H    0.82563   0.05020   0.07378   1.000
    H2135   H    0.79837   0.06612   0.08643   1.000
    C2136   C    0.75247   0.62084   0.64371   1.000
    C2137   C    0.76888   0.61324   0.63626   1.000
    C2138   C    0.77070   0.61070   0.61694   1.000
    C2139   C    0.75600   0.61627   0.60510   1.000
    C2140   C    0.73982   0.62432   0.61249   1.000
    C2141   C    0.73789   0.62660   0.63186   1.000
    C2142   C    0.78830   0.60304   0.60934   1.000
    C2143   C    0.78855   0.59132   0.59477   1.000
    C2144   C    0.80616   0.58389   0.58698   1.000
    C2145   C    0.80687   0.56534   0.58070   1.000
    C2146   C    0.82335   0.55808   0.57311   1.000
    C2147   C    0.83919   0.56947   0.57116   1.000
    C2148   C    0.83838   0.58815   0.57709   1.000
    C2149   C    0.82205   0.59527   0.58509   1.000
    H2150   H    0.75137   0.62265   0.65867   1.000
    H2151   H    0.78012   0.60919   0.64559   1.000
    H2152   H    0.75720   0.61484   0.59010   1.000
    H2153   H    0.72874   0.62861   0.60308   1.000
    H2154   H    0.80126   0.60651   0.61644   1.000
    H2155   H    0.77548   0.58628   0.58895   1.000
    H2156   H    0.79472   0.55641   0.58189   1.000
    H2157   H    0.82369   0.54366   0.56853   1.000
    H2158   H    0.85048   0.59714   0.57571   1.000
    H2159   H    0.82173   0.60976   0.58943   1.000
    C2160   C    0.24072   0.10662   0.64064   1.000
    C2161   C    0.25591   0.09708   0.63290   1.000
    C2162   C    0.26445   0.10361   0.61654   1.000
    C2163   C    0.25719   0.11971   0.60779   1.000
    C2164   C    0.24203   0.12926   0.61551   1.000
    C2165   C    0.23360   0.12288   0.63207   1.000
    C2166   C    0.28046   0.09299   0.60875   1.000
    C2167   C    0.29328   0.10071   0.59748   1.000
    C2168   C    0.30942   0.09041   0.58958   1.000
    C2169   C    0.32457   0.10080   0.58275   1.000
    C2170   C    0.33991   0.09187   0.57472   1.000
    C2171   C    0.34043   0.07229   0.57321   1.000
    C2172   C    0.32532   0.06182   0.58004   1.000
    C2173   C    0.30990   0.07077   0.58806   1.000
    H2174   H    0.23463   0.10113   0.65331   1.000
    H2175   H    0.26109   0.08459   0.63981   1.000
    H2176   H    0.26290   0.12486   0.59478   1.000
    H2177   H    0.23691   0.14157   0.60833   1.000
    H2178   H    0.28209   0.07862   0.61325   1.000
    H2179   H    0.29251   0.11554   0.59447   1.000
    H2180   H    0.32456   0.11593   0.58369   1.000
    H2181   H    0.35148   0.10029   0.56981   1.000
    H2182   H    0.32527   0.04672   0.57882   1.000
    H2183   H    0.29830   0.06224   0.59260   1.000
    C2184   C    0.24236   0.60830   0.13760   1.000
    C2185   C    0.25759   0.59924   0.12947   1.000
    C2186   C    0.26622   0.60665   0.11354   1.000
    C2187   C    0.25902   0.62323   0.10565   1.000
    C2188   C    0.24377   0.63232   0.11379   1.000
    C2189   C    0.23524   0.62500   0.12990   1.000
    C2190   C    0.28227   0.59640   0.10540   1.000
    C2191   C    0.29511   0.60448   0.09443   1.000
    C2192   C    0.31149   0.59442   0.08670   1.000
    C2193   C    0.32695   0.60494   0.08086   1.000
    C2194   C    0.34264   0.59616   0.07331   1.000
    C2195   C    0.34317   0.57663   0.07131   1.000
    C2196   C    0.32770   0.56604   0.07705   1.000
    C2197   C    0.31194   0.57484   0.08456   1.000
    H2198   H    0.23623   0.60208   0.14991   1.000
    H2199   H    0.26273   0.58640   0.13574   1.000
    H2200   H    0.26485   0.62910   0.09301   1.000
    H2201   H    0.23866   0.64502   0.10731   1.000
    H2202   H    0.28401   0.58193   0.10952   1.000
    H2203   H    0.29430   0.61936   0.09173   1.000
    H2204   H    0.32696   0.62003   0.08227   1.000
    H2205   H    0.35447   0.60466   0.06922   1.000
    H2206   H    0.32765   0.55099   0.07538   1.000
    H2207   H    0.30010   0.56624   0.08828   1.000
    C2208   C    0.74095   0.86209   0.89093   1.000
    C2209   C    0.75627   0.87001   0.90005   1.000
    C2210   C    0.76498   0.88601   0.89286   1.000
    C2211   C    0.75782   0.89416   0.87640   1.000
    C2212   C    0.74247   0.88623   0.86726   1.000
    C2213   C    0.73382   0.87009   0.87440   1.000
    C2214   C    0.78105   0.89400   0.90324   1.000
    C2215   C    0.79392   0.90512   0.89538   1.000
    C2216   C    0.81022   0.91284   0.90560   1.000
    C2217   C    0.82566   0.91896   0.89522   1.000
    C2218   C    0.84122   0.92665   0.90411   1.000
    C2219   C    0.84164   0.92854   0.92364   1.000
    C2220   C    0.82621   0.92245   0.93409   1.000
    C2221   C    0.81059   0.91478   0.92518   1.000
    H2222   H    0.73473   0.84974   0.89701   1.000
    H2223   H    0.76139   0.86352   0.91277   1.000
    H2224   H    0.76372   0.90684   0.87068   1.000
    H2225   H    0.73738   0.89291   0.85467   1.000
    H2226   H    0.78274   0.88969   0.91764   1.000
    H2227   H    0.79315   0.90802   0.88056   1.000
    H2228   H    0.82575   0.91769   0.88015   1.000
    H2229   H    0.85302   0.93097   0.89570   1.000
    H2230   H    0.82607   0.92400   0.94913   1.000
    H2231   H    0.79876   0.91081   0.93368   1.000
    C2232   C    0.74390   0.35769   0.38847   1.000
    C2233   C    0.75971   0.36513   0.39717   1.000
    C2234   C    0.76726   0.38224   0.39128   1.000
    C2235   C    0.75878   0.39162   0.37614   1.000
    C2236   C    0.74292   0.38418   0.36743   1.000
    C2237   C    0.73521   0.36713   0.37352   1.000
    C2238   C    0.78422   0.38936   0.40095   1.000
    C2239   C    0.78981   0.40727   0.40041   1.000
    C2240   C    0.80670   0.41436   0.41026   1.000
    C2241   C    0.80840   0.43370   0.41316   1.000
    C2242   C    0.82423   0.44110   0.42190   1.000
    C2243   C    0.83879   0.42931   0.42792   1.000
    C2244   C    0.83715   0.40995   0.42506   1.000
    C2245   C    0.82136   0.40254   0.41623   1.000
    H2246   H    0.73862   0.34446   0.39352   1.000
    H2247   H    0.76604   0.35747   0.40864   1.000
    H2248   H    0.76444   0.40455   0.37072   1.000
    H2249   H    0.73676   0.39185   0.35592   1.000
    H2250   H    0.79179   0.37944   0.40953   1.000
    H2251   H    0.78134   0.41751   0.39313   1.000
    H2252   H    0.79742   0.44315   0.40863   1.000
    H2253   H    0.82507   0.45607   0.42399   1.000
    H2254   H    0.84834   0.40057   0.42918   1.000
    H2255   H    0.82103   0.38765   0.41376   1.000
    C2256   C    0.24062   0.89221   0.35954   1.000
    C2257   C    0.25593   0.90161   0.36724   1.000
    C2258   C    0.26476   0.89482   0.38341   1.000
    C2259   C    0.25769   0.87859   0.39198   1.000
    C2260   C    0.24240   0.86920   0.38430   1.000
    C2261   C    0.23366   0.87584   0.36796   1.000
    C2262   C    0.28086   0.90532   0.39121   1.000
    C2263   C    0.29386   0.89743   0.40225   1.000
    C2264   C    0.31006   0.90761   0.41023   1.000
    C2265   C    0.32534   0.89713   0.41681   1.000
    C2266   C    0.34073   0.90595   0.42491   1.000
    C2267   C    0.34117   0.92550   0.42673   1.000
    C2268   C    0.32591   0.93606   0.42018   1.000
    C2269   C    0.31045   0.92722   0.41209   1.000
    H2270   H    0.23431   0.89788   0.34701   1.000
    H2271   H    0.26096   0.91419   0.36045   1.000
    H2272   H    0.26362   0.87324   0.40484   1.000
    H2273   H    0.23743   0.85680   0.39137   1.000
    H2274   H    0.28236   0.91975   0.38692   1.000
    H2275   H    0.29320   0.88256   0.40506   1.000
    H2276   H    0.32541   0.88203   0.41562   1.000
    H2277   H    0.35240   0.89745   0.42958   1.000
    H2278   H    0.32578   0.95113   0.42165   1.000
    H2279   H    0.29876   0.93581   0.40775   1.000
    C2280   C    0.24431   0.35835   0.89138   1.000
    C2281   C    0.26000   0.36572   0.90040   1.000
    C2282   C    0.26832   0.38230   0.89403   1.000
    C2283   C    0.26083   0.39115   0.87809   1.000
    C2284   C    0.24513   0.38378   0.86907   1.000
    C2285   C    0.23659   0.36732   0.87563   1.000
    C2286   C    0.28507   0.38949   0.90398   1.000
    C2287   C    0.29071   0.40738   0.90312   1.000
    C2288   C    0.30750   0.41472   0.91291   1.000
    C2289   C    0.30924   0.43416   0.91512   1.000
    C2290   C    0.32507   0.44182   0.92362   1.000
    C2291   C    0.33958   0.43022   0.93009   1.000
    C2292   C    0.33787   0.41076   0.92795   1.000
    C2293   C    0.32207   0.40308   0.91938   1.000
    H2294   H    0.23833   0.34558   0.89682   1.000
    H2295   H    0.26559   0.35848   0.91250   1.000
    H2296   H    0.26717   0.40358   0.87228   1.000
    H2297   H    0.23980   0.39107   0.85693   1.000
    H2298   H    0.29242   0.37973   0.91295   1.000
    H2299   H    0.28234   0.41744   0.89546   1.000
    H2300   H    0.29831   0.44348   0.91020   1.000
    H2301   H    0.32595   0.45686   0.92517   1.000
    H2302   H    0.34902   0.40149   0.93244   1.000
    H2303   H    0.32168   0.38810   0.91745   1.000
loop_
    _geom_bond_atom_site_label_1
    _geom_bond_atom_site_label_2
    _geom_bond_distance
    _geom_bond_site_symmetry_2
    _ccdc_geom_bond_type
    H254   C240      1.08064      .   S
    C245   C240      1.40719      .   S
    C245   C244      1.40640      .   S
    C1301  C1296     1.41087      .   S
    C1301  C1300     1.41034      .   S
    C1181  C1176     1.41141      .   S
    C1181  C1180     1.41048      .   S
    H1190  C1176     1.07912      .   S
    C1277  C1272     1.41182      .   S
    C1277  C1276     1.40925      .   S
    H1310  C1296     1.08067      .   S
    H1286  C1272     1.07980      .   S
    H329   C316      1.08191      .   S
    C317   C316      1.40670      .   S
    C317   C312      1.40592      .   S
    H1313  C1300     1.08040      .   S
    C1205  C1200     1.41053      .   S
    C1205  C1204     1.41044      .   S
    H257   C244      1.08130      .   S
    C221   C216      1.40632      .   S
    C221   C220      1.40573      .   S
    H1193  C1180     1.08143      .   S
    C341   C340      1.40635      .   S
    C341   C336      1.40641      .   S
    C240   C241      1.39615      .   S
    H1214  C1200     1.08025      .   S
    H230   C216      1.08065      .   S
    H1289  C1276     1.08093      .   S
    H353   C340      1.08167      .   S
    H233   C220      1.08112      .   S
    H1217  C1204     1.08147      .   S
    C1176  C1177     1.39419      .   S
    H350   C336      1.08065      .   S
    C1296  C1297     1.39790      .   S
    C244   C243      1.40088      .   S
    C1272  C1273     1.39415      .   S
    C1300  C1299     1.39752      .   S
    C1180  C1179     1.40168      .   S
    H326   C312      1.08117      .   S
    C316   C315      1.40320      .   S
    C1276  C1275     1.40064      .   S
    C1200  C1201     1.39502      .   S
    C216   C217      1.39621      .   S
    C220   C219      1.39796      .   S
    C1204  C1203     1.39869      .   S
    C340   C339      1.39874      .   S
    C336   C337      1.39435      .   S
    C312   C313      1.39501      .   S
    C241   H255      1.08351      .   S
    C241   C242      1.40131      .   S
    C1177  H1191     1.08361      .   S
    C1177  C1178     1.39905      .   S
    C1297  H1311     1.08343      .   S
    C1297  C1298     1.40167      .   S
    C1273  H1287     1.08368      .   S
    C1273  C1274     1.39901      .   S
    C243   C242      1.40877      .   S
    C243   H256      1.08108      .   S
    C1299  H1312     1.08149      .   S
    C1299  C1298     1.40603      .   S
    C1179  H1192     1.08120      .   S
    C1179  C1178     1.40806      .   S
    C1275  H1288     1.08125      .   S
    C1275  C1274     1.40721      .   S
    C315   H328      1.08067      .   S
    C315   C314      1.41069      .   S
    C217   H231      1.08376      .   S
    C217   C218      1.40233      .   S
    C1201  H1215     1.08378      .   S
    C1201  C1202     1.39999      .   S
    C219   H232      1.08094      .   S
    C219   C218      1.40753      .   S
    C1203  H1216     1.08153      .   S
    C1203  C1202     1.40672      .   S
    C339   H352      1.08168      .   S
    C339   C338      1.40785      .   S
    C337   H351      1.08417      .   S
    C337   C338      1.40156      .   S
    C313   C314      1.40197      .   S
    C313   H327      1.08304      .   S
    C242   C246      1.48693      .   S
    C1178  C1182     1.48443      .   S
    C1298  C1302     1.48461      .   S
    C1274  C1278     1.48298      .   S
    C218   C222      1.48267      .   S
    C1202  C1206     1.48242      .   S
    C314   C318      1.48712      .   S
    C338   C342      1.48251      .   S
    C246   H258      1.08096      .   S
    C246   C247      1.34158      .   S
    C1182  H1194     1.08168      .   S
    C1182  C1183     1.34024      .   S
    C1302  H1314     1.08157      .   S
    C1302  C1303     1.34192      .   S
    C1278  H1290     1.08140      .   S
    C1278  C1279     1.34032      .   S
    H331   C319      1.08149      .   S
    H235   C223      1.08154      .   S
    H1219  C1207     1.08257      .   S
    H355   C343      1.08232      .   S
    C222   C223      1.34211      .   S
    C222   H234      1.08136      .   S
    C1206  C1207     1.34067      .   S
    C1206  H1218     1.08186      .   S
    C318   C319      1.34250      .   S
    C318   H330      1.08052      .   S
    C342   C343      1.34152      .   S
    C342   H354      1.08138      .   S
    C223   C224      1.48322      .   S
    C319   C320      1.49048      .   S
    C1207  C1208     1.48299      .   S
    C343   C344      1.48443      .   S
    H259   C247      1.08223      .   S
    H1315  C1303     1.08218      .   S
    C247   C248      1.48702      .   S
    H1195  C1183     1.08150      .   S
    C1303  C1304     1.48392      .   S
    C1183  C1184     1.48507      .   S
    H1291  C1279     1.08182      .   S
    C1279  C1280     1.48459      .   S
    H332   C321      1.08310      .   S
    H263   C253      1.08034      .   S
    H1220  C1209     1.08382      .   S
    H1199  C1189     1.08110      .   S
    H356   C345      1.08307      .   S
    H1319  C1309     1.08055      .   S
    H236   C225      1.08390      .   S
    H1295  C1285     1.08091      .   S
    C320   C321      1.40452      .   S
    C320   C325      1.41047      .   S
    C224   C225      1.40375      .   S
    C224   C229      1.40916      .   S
    C1208  C1209     1.40371      .   S
    C1208  C1213     1.40859      .   S
    C344   C345      1.40369      .   S
    C344   C349      1.40900      .   S
    C321   C322      1.39817      .   S
    C248   C253      1.41064      .   S
    C248   C249      1.40327      .   S
    C1209  C1210     1.39719      .   S
    C253   C252      1.40091      .   S
    C1304  C1309     1.40942      .   S
    C1304  C1305     1.40331      .   S
    C345   C346      1.39707      .   S
    C225   C226      1.39758      .   S
    C1184  C1189     1.41019      .   S
    C1184  C1185     1.40250      .   S
    C1309  C1308     1.39969      .   S
    C1189  C1188     1.39931      .   S
    C1280  C1285     1.40993      .   S
    C1280  C1281     1.40223      .   S
    C1285  C1284     1.40000      .   S
    H239   C229      1.08028      .   S
    C229   C228      1.39623      .   S
    C325   H335      1.08047      .   S
    C325   C324      1.39981      .   S
    H1223  C1213     1.08115      .   S
    C1213  C1212     1.39707      .   S
    H359   C349      1.08058      .   S
    C349   C348      1.39778      .   S
    H260   C249      1.08416      .   S
    C322   H333      1.08304      .   S
    C322   C323      1.40493      .   S
    C249   C250      1.39557      .   S
    H1316  C1305     1.08278      .   S
    C1305  C1306     1.39595      .   S
    C1210  H1221     1.08326      .   S
    C1210  C1211     1.40490      .   S
    H262   C252      1.08298      .   S
    C252   C251      1.40415      .   S
    C346   H357      1.08336      .   S
    C346   C347      1.40411      .   S
    C1185  H1196     1.08304      .   S
    C1185  C1186     1.39619      .   S
    C226   H237      1.08253      .   S
    C226   C227      1.40353      .   S
    C1308  H1318     1.08270      .   S
    C1308  C1307     1.40500      .   S
    H1198  C1188     1.08339      .   S
    C1188  C1187     1.40380      .   S
    C1281  H1292     1.08331      .   S
    C1281  C1282     1.39486      .   S
    H1294  C1284     1.08319      .   S
    C1284  C1283     1.40355      .   S
    C324   C323      1.40332      .   S
    C324   H334      1.08323      .   S
    C1212  C1211     1.40415      .   S
    C1212  H1222     1.08280      .   S
    C228   C227      1.40358      .   S
    C228   H238      1.08296      .   S
    C348   C347      1.40318      .   S
    C348   H358      1.08320      .   S
    C250   C251      1.40589      .   S
    C250   H261      1.08288      .   S
    C1306  C1307     1.40509      .   S
    C1306  H1317     1.08303      .   S
    C1186  C1187     1.40572      .   S
    C1186  H1197     1.08265      .   S
    C1282  C1283     1.40529      .   S
    C1282  H1293     1.08297      .   S
    H542   C528      1.08111      .   S
    H734   C720      1.08137      .   S
    H2270  C2256     1.08088      .   S
    H1598  C1584     1.07974      .   S
    H926   C912      1.08084      .   S
    H1982  C1968     1.08125      .   S
    H710   C696      1.08033      .   S
    H521   C508      1.08065      .   S
    H1793  C1780     1.08112      .   S
    H1022  C1008     1.08052      .   S
    H1577  C1564     1.08015      .   S
    H1769  C1756     1.08144      .   S
    H905   C892      1.08128      .   S
    H2249  C2236     1.08109      .   S
    H1961  C1948     1.08200      .   S
    H543   C529      1.08398      .   S
    C528   C529      1.39487      .   S
    C528   C533      1.40626      .   S
    H998   C984      1.07965      .   S
    C720   C725      1.40711      .   S
    C720   C721      1.39679      .   S
    C2256  C2257     1.39908      .   S
    C2256  C2261     1.40741      .   S
    H2271  C2257     1.08368      .   S
    H735   C721      1.08383      .   S
    C1584  C1585     1.39614      .   S
    C1584  C1589     1.41095      .   S
    C1968  C1973     1.40681      .   S
    C1968  C1969     1.39901      .   S
    C912   C917      1.40703      .   S
    C912   C913      1.39461      .   S
    H1599  C1585     1.08361      .   S
    C696   C701      1.40781      .   S
    C696   C697      1.39605      .   S
    H927   C913      1.08318      .   S
    H1983  C1969     1.08376      .   S
    H711   C697      1.08339      .   S
    C1008  C1013     1.40659      .   S
    C1008  C1009     1.39359      .   S
    C529   C530      1.40116      .   S
    C508   C509      1.41059      .   S
    C508   C507      1.40127      .   S
    C892   C893      1.40706      .   S
    C892   C891      1.40196      .   S
    C1780  C1781     1.41026      .   S
    C1780  C1779     1.40228      .   S
    C2257  C2258     1.40260      .   S
    C725   C724      1.40712      .   S
    C2236  C2237     1.40750      .   S
    C2236  C2235     1.40004      .   S
    C721   C722      1.40218      .   S
    C1564  C1565     1.41101      .   S
    C1564  C1563     1.39793      .   S
    C1948  C1949     1.40493      .   S
    C1948  C1947     1.39909      .   S
    C2261  C2260     1.40618      .   S
    C1756  C1757     1.40674      .   S
    C1756  C1755     1.39942      .   S
    C533   C532      1.40591      .   S
    C984   C989      1.40762      .   S
    C984   C985      1.39518      .   S
    C1973  C1972     1.40753      .   S
    H1023  C1009     1.08358      .   S
    C1585  C1586     1.40006      .   S
    C1969  C1970     1.40319      .   S
    C917   C916      1.40591      .   S
    C913   C914      1.40120      .   S
    C1589  C1588     1.41024      .   S
    C701   C700      1.40596      .   S
    C697   C698      1.40177      .   S
    H520   C507      1.08089      .   S
    H2248  C2235     1.08134      .   S
    H1792  C1779     1.08158      .   S
    H1576  C1563     1.08132      .   S
    H904   C891      1.08048      .   S
    H1768  C1755     1.08104      .   S
    C893   C888      1.40675      .   S
    C1949  C1944     1.40581      .   S
    C1013  C1012     1.40534      .   S
    H999   C985      1.08376      .   S
    C989   C988      1.40626      .   S
    H1960  C1947     1.08064      .   S
    C509   C504      1.41190      .   S
    C2237  C2232     1.40667      .   S
    C1781  C1776     1.41153      .   S
    C1565  C1560     1.41038      .   S
    C1009  C1010     1.40077      .   S
    C1757  C1752     1.40743      .   S
    C891   C890      1.40992      .   S
    C507   C506      1.40793      .   S
    C2235  C2234     1.40851      .   S
    C985   C986      1.40119      .   S
    C1779  C1778     1.40796      .   S
    C1947  C1946     1.40897      .   S
    C1563  C1562     1.40582      .   S
    C1755  C1754     1.40750      .   S
    H524   C513      1.08371      .   S
    H523   C511      1.08170      .   S
    H546   C534      1.08087      .   S
    H1795  C1783     1.08176      .   S
    H1796  C1785     1.08372      .   S
    H1772  C1761     1.08343      .   S
    H1771  C1759     1.08207      .   S
    C530   C534      1.48226      .   S
    C530   C531      1.40819      .   S
    C2258  C2262     1.48488      .   S
    C2258  C2259     1.40658      .   S
    C722   C726      1.48674      .   S
    C722   C723      1.40856      .   S
    C724   H737      1.08141      .   S
    C724   C723      1.39997      .   S
    C2260  H2273     1.08080      .   S
    C2260  C2259     1.39705      .   S
    C1972  H1985     1.08073      .   S
    C1972  C1971     1.39766      .   S
    C1970  C1971     1.40790      .   S
    C1970  C1974     1.48780      .   S
    C988   H1001     1.08081      .   S
    C988   C987      1.40169      .   S
    C1944  H1958     1.08130      .   S
    C1944  C1945     1.39410      .   S
    C532   C531      1.39865      .   S
    C532   H545      1.08150      .   S
    C1586  C1590     1.48288      .   S
    C1586  C1587     1.40693      .   S
    C698   C702      1.48475      .   S
    C698   C699      1.40864      .   S
    C700   H713      1.08107      .   S
    C700   C699      1.39931      .   S
    C914   C918      1.48049      .   S
    C914   C915      1.40763      .   S
    C916   H929      1.08079      .   S
    C916   C915      1.39677      .   S
    C888   H902      1.08049      .   S
    C888   C889      1.39583      .   S
    H2274  C2262     1.08118      .   S
    C1588  H1601     1.08107      .   S
    C1588  C1587     1.39823      .   S
    H738   C726      1.08100      .   S
    C1012  H1025     1.08226      .   S
    C1012  C1011     1.40067      .   S
    C986   C987      1.40988      .   S
    C986   C990      1.48743      .   S
    H1602  C1590     1.08148      .   S
    C2232  H2246     1.08084      .   S
    C2232  C2233     1.39683      .   S
    H551   C541      1.08009      .   S
    C1010  C1011     1.40927      .   S
    C1010  C1014     1.48289      .   S
    H1986  C1974     1.08158      .   S
    H714   C702      1.08186      .   S
    C504   H518      1.07963      .   S
    C504   C505      1.39532      .   S
    C1946  C1945     1.40122      .   S
    C1946  C1950     1.48289      .   S
    H930   C918      1.08156      .   S
    C890   C889      1.40172      .   S
    C890   C894      1.48679      .   S
    C1560  H1574     1.08062      .   S
    C1560  C1561     1.39682      .   S
    C534   C535      1.34107      .   S
    C1776  H1790     1.07930      .   S
    C1776  C1777     1.39352      .   S
    C2262  C2263     1.34139      .   S
    C2234  C2233     1.40240      .   S
    C2234  C2238     1.48696      .   S
    C726   C727      1.34198      .   S
    C723   H736      1.08101      .   S
    C1752  H1766     1.08037      .   S
    C1752  C1753     1.39818      .   S
    C2259  H2272     1.08151      .   S
    C506   C505      1.39984      .   S
    C506   C510      1.48544      .   S
    C1971  H1984     1.08071      .   S
    C531   H544      1.08101      .   S
    C987   H1000     1.08044      .   S
    C1562  C1561     1.40134      .   S
    C1562  C1566     1.48347      .   S
    C1974  C1975     1.34368      .   S
    C1778  C1777     1.39863      .   S
    C1778  C1782     1.48404      .   S
    H2251  C2239     1.08120      .   S
    C1590  C1591     1.34032      .   S
    C702   C703      1.34120      .   S
    C699   H712      1.08116      .   S
    H1026  C1014     1.08151      .   S
    C1945  H1959     1.08363      .   S
    H907   C895      1.08126      .   S
    C1754  C1753     1.40272      .   S
    C1754  C1758     1.48617      .   S
    C918   C919      1.34006      .   S
    C915   H928      1.08182      .   S
    H1002  C990      1.07936      .   S
    H1579  C1567     1.08192      .   S
    C1587  H1600     1.08166      .   S
    C511   C510      1.34113      .   S
    C511   C512      1.48588      .   S
    C889   H903      1.08383      .   S
    C513   C514      1.39624      .   S
    C513   C512      1.40245      .   S
    C1011  H1024     1.08108      .   S
    C990   C991      1.34254      .   S
    C1783  C1782     1.34013      .   S
    C1783  C1784     1.48503      .   S
    H1963  C1951     1.08177      .   S
    H525   C514      1.08286      .   S
    C1785  C1786     1.39580      .   S
    C1785  C1784     1.40204      .   S
    C1761  C1762     1.39589      .   S
    C1761  C1760     1.40362      .   S
    C1759  C1758     1.34221      .   S
    C1759  C1760     1.48692      .   S
    C1014  C1015     1.33965      .   S
    C2233  H2247     1.08354      .   S
    H1797  C1786     1.08314      .   S
    H1773  C1762     1.08309      .   S
    C505   H519      1.08416      .   S
    C1561  H1575     1.08386      .   S
    C1950  C1951     1.34162      .   S
    C1950  H1962     1.07978      .   S
    C1777  H1791     1.08375      .   S
    C894   C895      1.34279      .   S
    C894   H906      1.08133      .   S
    C2239  C2238     1.34274      .   S
    C2239  C2240     1.48819      .   S
    C895   C896      1.48914      .   S
    C2238  H2250     1.08064      .   S
    C1753  H1767     1.08351      .   S
    C1951  C1952     1.48646      .   S
    H550   C540      1.08290      .   S
    C1567  C1566     1.34178      .   S
    C1567  C1568     1.48485      .   S
    C2263  H2275     1.08255      .   S
    C2263  C2264     1.48389      .   S
    C510   H522      1.08201      .   S
    C1566  H1578     1.08129      .   S
    C727   H739      1.08218      .   S
    C727   C728      1.48667      .   S
    C1782  H1794     1.08186      .   S
    C1975  H1987     1.08132      .   S
    C1975  C1976     1.48728      .   S
    C703   H715      1.08233      .   S
    C703   C704      1.48549      .   S
    C541   C540      1.39676      .   S
    C541   C536      1.40929      .   S
    C991   H1003     1.08100      .   S
    C991   C992      1.48895      .   S
    C514   C515      1.40609      .   S
    C1591  H1603     1.08264      .   S
    C1591  C1592     1.48330      .   S
    C1758  H1770     1.08141      .   S
    C919   H931      1.08196      .   S
    C919   C920      1.48075      .   S
    C512   C517      1.41008      .   S
    C1786  C1787     1.40650      .   S
    C1762  C1763     1.40514      .   S
    C1784  C1789     1.41128      .   S
    C1015  H1027     1.08230      .   S
    C1015  C1016     1.48419      .   S
    C1760  C1765     1.40946      .   S
    H743   C733      1.08020      .   S
    H2279  C2269     1.08078      .   S
    C535   C536      1.48383      .   S
    C535   H547      1.08183      .   S
    H2252  C2241     1.08327      .   S
    H1607  C1597     1.08114      .   S
    H719   C709      1.08053      .   S
    H1991  C1981     1.08083      .   S
    H908   C897      1.08304      .   S
    C2264  C2269     1.40901      .   S
    C2264  C2265     1.40338      .   S
    C2240  C2241     1.40429      .   S
    C2240  C2245     1.40995      .   S
    H1580  C1569     1.08359      .   S
    C728   C733      1.41010      .   S
    C728   C729      1.40367      .   S
    H1007  C997      1.07923      .   S
    H1964  C1953     1.08322      .   S
    C896   C897      1.40445      .   S
    C896   C901      1.40981      .   S
    H935   C925      1.08111      .   S
    C540   C539      1.40412      .   S
    C704   C709      1.41010      .   S
    C704   C705      1.40345      .   S
    C1952  C1953     1.40474      .   S
    C1952  C1957     1.41061      .   S
    C992   C997      1.41234      .   S
    C992   C993      1.40462      .   S
    C1976  C1981     1.40936      .   S
    C1976  C1977     1.40438      .   S
    C733   C732      1.40122      .   S
    C1592  C1597     1.40977      .   S
    C1592  C1593     1.40201      .   S
    C2269  C2268     1.40002      .   S
    C1568  C1569     1.40377      .   S
    C1568  C1573     1.40863      .   S
    C920   C925      1.40906      .   S
    C920   C921      1.40249      .   S
    H1031  C1021     1.08041      .   S
    C2241  C2242     1.39817      .   S
    C709   C708      1.40007      .   S
    C1597  C1596     1.39934      .   S
    H2255  C2245     1.07994      .   S
    H911   C901      1.08084      .   S
    C1981  C1980     1.40041      .   S
    C1016  C1021     1.41152      .   S
    C1016  C1017     1.40283      .   S
    C997   C996      1.39998      .   S
    H1967  C1957     1.07921      .   S
    C897   C898      1.39785      .   S
    C1569  C1570     1.39711      .   S
    C925   C924      1.39854      .   S
    C1953  C1954     1.39676      .   S
    H1004  C993      1.08360      .   S
    H1583  C1573     1.08054      .   S
    C536   C537      1.40409      .   S
    H2276  C2265     1.08315      .   S
    C2245  C2244     1.39902      .   S
    C1021  C1020     1.39839      .   S
    H716   C705      1.08343      .   S
    H740   C729      1.08358      .   S
    C901   C900      1.39949      .   S
    C2265  C2266     1.39571      .   S
    C993   C994      1.39614      .   S
    C1957  C1956     1.39595      .   S
    H1988  C1977     1.08294      .   S
    C729   C730      1.39575      .   S
    H932   C921      1.08371      .   S
    C705   C706      1.39571      .   S
    H1604  C1593     1.08380      .   S
    C1573  C1572     1.39758      .   S
    H1028  C1017     1.08317      .   S
    C1977  C1978     1.39706      .   S
    C1593  C1594     1.39464      .   S
    C921   C922      1.39415      .   S
    C1017  C1018     1.39492      .   S
    C732   H742      1.08277      .   S
    C732   C731      1.40408      .   S
    C2268  H2278     1.08285      .   S
    C2268  C2267     1.40461      .   S
    C1596  H1606     1.08340      .   S
    C1596  C1595     1.40427      .   S
    C708   H718      1.08261      .   S
    C708   C707      1.40396      .   S
    C996   H1006     1.08311      .   S
    C996   C995      1.40273      .   S
    C2242  H2253     1.08288      .   S
    C2242  C2243     1.40445      .   S
    C1980  H1990     1.08242      .   S
    C1980  C1979     1.40514      .   S
    C924   H934      1.08283      .   S
    C924   C923      1.40300      .   S
    C1020  H1030     1.08333      .   S
    C1020  C1019     1.40248      .   S
    C898   H909      1.08314      .   S
    C898   C899      1.40545      .   S
    C1570  H1581     1.08300      .   S
    C1570  C1571     1.40395      .   S
    C1954  H1965     1.08304      .   S
    C1954  C1955     1.40347      .   S
    C515   C516      1.40499      .   S
    C994   C995      1.40442      .   S
    C994   H1005     1.08296      .   S
    C2266  C2267     1.40454      .   S
    C2266  H2277     1.08303      .   S
    C2244  C2243     1.40490      .   S
    C2244  H2254     1.08284      .   S
    C517   H527      1.08098      .   S
    C517   C516      1.40031      .   S
    C730   C731      1.40596      .   S
    C730   H741      1.08313      .   S
    C1787  C1788     1.40368      .   S
    C706   C707      1.40461      .   S
    C706   H717      1.08269      .   S
    C1763  C1764     1.40482      .   S
    C900   C899      1.40365      .   S
    C900   H910      1.08327      .   S
    C1594  C1595     1.40516      .   S
    C1594  H1605     1.08292      .   S
    C1956  C1955     1.40269      .   S
    C1956  H1966     1.08301      .   S
    C1789  H1799     1.08075      .   S
    C1789  C1788     1.39948      .   S
    C922   C923      1.40433      .   S
    C922   H933      1.08278      .   S
    C1018  C1019     1.40418      .   S
    C1018  H1029     1.08321      .   S
    C1978  C1979     1.40439      .   S
    C1978  H1989     1.08307      .   S
    C1572  C1571     1.40518      .   S
    C1572  H1582     1.08319      .   S
    C1765  H1775     1.08082      .   S
    C1765  C1764     1.40109      .   S
    C539   C538      1.40382      .   S
    C516   H526      1.08321      .   S
    C537   C538      1.39658      .   S
    C537   H548      1.08376      .   S
    C1788  H1798     1.08324      .   S
    C1764  H1774     1.08245      .   S
    C538   H549      1.08361      .   S
    H2061  C2050     1.08286      .   S
    H1870  C1860     1.08347      .   S
    H1894  C1884     1.08292      .   S
    H622   C612      1.08303      .   S
    H2086  C2076     1.08309      .   S
    H2060  C2049     1.08318      .   S
    C2050  C2049     1.39751      .   S
    C2050  C2051     1.40470      .   S
    H1895  C1885     1.08115      .   S
    C1860  C1861     1.40019      .   S
    C1860  C1859     1.40380      .   S
    C1884  C1885     1.39902      .   S
    C1884  C1883     1.40431      .   S
    H1871  C1861     1.08090      .   S
    C612   C613      1.40060      .   S
    C612   C611      1.40333      .   S
    C2076  C2077     1.39776      .   S
    C2076  C2075     1.40295      .   S
    H2087  C2077     1.08060      .   S
    H623   C613      1.08058      .   S
    C2049  C2048     1.40423      .   S
    H2157  C2146     1.08299      .   S
    H1701  C1690     1.08330      .   S
    H2181  C2170     1.08303      .   S
    H430   C420      1.08309      .   S
    H1125  C1114     1.08345      .   S
    C635   C636      1.40271      .   S
    C635   C634      1.40381      .   S
    H1102  C1092     1.08302      .   S
    H646   C636      1.08336      .   S
    C1091  C1092     1.40400      .   S
    C1091  C1090     1.40402      .   S
    H454   C444      1.08331      .   S
    C2051  C2052     1.40415      .   S
    C2147  C2146     1.40361      .   S
    C2147  C2148     1.40367      .   S
    C1885  C1880     1.40992      .   S
    C1861  C1856     1.40973      .   S
    C419   C420      1.40529      .   S
    C419   C418      1.40460      .   S
    C1691  C1690     1.40505      .   S
    C1691  C1692     1.40331      .   S
    H838   C828      1.08284      .   S
    C443   C444      1.40436      .   S
    C443   C442      1.40496      .   S
    C1667  C1668     1.40244      .   S
    C1667  C1666     1.40373      .   S
    C803   C804      1.40264      .   S
    C803   C802      1.40423      .   S
    C827   C828      1.40390      .   S
    C827   C826      1.40335      .   S
    H645   C634      1.08321      .   S
    C1115  C1114     1.40427      .   S
    C1115  C1116     1.40448      .   S
    H814   C804      1.08349      .   S
    C1859  C1858     1.40510      .   S
    C1690  C1689     1.39528      .   S
    H1678  C1668     1.08352      .   S
    C2146  C2145     1.39841      .   S
    H1101  C1090     1.08255      .   S
    C2171  C2170     1.40473      .   S
    C2171  C2172     1.40396      .   S
    C2077  C2072     1.40967      .   S
    C613   C608      1.41161      .   S
    C1883  C1882     1.40435      .   S
    C636   C637      1.39617      .   S
    C1092  C1093     1.39713      .   S
    C420   C421      1.39744      .   S
    C611   C610      1.40504      .   S
    H1677  C1666     1.08278      .   S
    C1114  C1113     1.39485      .   S
    C444   C445      1.39915      .   S
    H813   C802      1.08275      .   S
    C2170  C2169     1.39410      .   S
    C2075  C2074     1.40493      .   S
    C634   C633      1.39670      .   S
    H837   C826      1.08327      .   S
    C828   C829      1.39631      .   S
    H2158  C2148     1.08362      .   S
    C1090  C1089     1.39756      .   S
    H429   C418      1.08280      .   S
    H453   C442      1.08286      .   S
    C804   C805      1.39672      .   S
    C1668  C1669     1.39684      .   S
    H1702  C1692     1.08311      .   S
    C2148  C2149     1.39754      .   S
    C1666  C1665     1.39779      .   S
    C802   C801      1.39787      .   S
    C418   C417      1.39769      .   S
    C1692  C1693     1.39913      .   S
    C826   C825      1.39791      .   S
    H1126  C1116     1.08337      .   S
    C442   C441      1.39815      .   S
    H1890  C1878     1.08134      .   S
    H2182  C2172     1.08334      .   S
    C1116  C1117     1.39912      .   S
    H1866  C1854     1.08092      .   S
    C2172  C2173     1.39896      .   S
    C1689  H1700     1.08320      .   S
    C1689  C1688     1.40244      .   S
    H2082  C2070     1.08197      .   S
    C2145  H2156     1.08279      .   S
    C2145  C2144     1.40246      .   S
    H618   C606      1.08132      .   S
    H2059  C2047     1.08147      .   S
    C421   H431      1.08138      .   S
    C421   C416      1.40839      .   S
    C1113  H1124     1.08361      .   S
    C1113  C1112     1.40258      .   S
    C2169  H2180     1.08397      .   S
    C2169  C2168     1.40312      .   S
    C1093  H1103     1.07994      .   S
    C1093  C1088     1.40992      .   S
    C637   H647      1.08024      .   S
    C637   C632      1.41013      .   S
    H1887  C1873     1.08363      .   S
    C445   H455      1.08074      .   S
    C445   C440      1.40929      .   S
    C633   C632      1.40402      .   S
    C633   H644      1.08309      .   S
    C1089  C1088     1.40434      .   S
    C1089  H1100     1.08347      .   S
    C829   H839      1.08042      .   S
    C829   C824      1.40920      .   S
    H615   C601      1.08362      .   S
    C1693  C1688     1.40966      .   S
    C1693  H1703     1.08123      .   S
    C2149  C2144     1.40567      .   S
    C2149  H2159     1.08262      .   S
    C2048  C2047     1.48595      .   S
    C2048  C2053     1.40926      .   S
    H1863  C1849     1.08377      .   S
    C805   H815      1.08032      .   S
    C805   C800      1.40999      .   S
    C1669  H1679     1.07970      .   S
    C1669  C1664     1.41033      .   S
    H2079  C2065     1.08309      .   S
    C417   C416      1.40344      .   S
    C417   H428      1.08348      .   S
    C1688  C1687     1.48348      .   S
    H423   C409      1.08358      .   S
    C825   C824      1.40423      .   S
    C825   H836      1.08331      .   S
    C801   H812      1.08334      .   S
    C801   C800      1.40414      .   S
    C441   C440      1.40351      .   S
    C441   H452      1.08380      .   S
    C1665  H1676     1.08321      .   S
    C1665  C1664     1.40405      .   S
    H426   C414      1.08183      .   S
    C2144  C2143     1.47689      .   S
    C1117  C1112     1.40984      .   S
    C1117  H1127     1.08036      .   S
    C2173  C2168     1.40899      .   S
    C2173  H2183     1.08081      .   S
    C1088  C1087     1.48570      .   S
    C632   C631      1.48440      .   S
    C416   C415      1.48421      .   S
    H2155  C2143     1.08534      .   S
    C1112  C1111     1.48346      .   S
    H450   C438      1.08167      .   S
    C440   C439      1.48702      .   S
    C2168  C2167     1.48191      .   S
    C2052  C2053     1.39798      .   S
    C2052  H2062     1.08300      .   S
    H447   C433      1.08312      .   S
    H2152  C2139     1.08286      .   S
    C824   C823      1.48439      .   S
    H1699  C1687     1.08194      .   S
    H1098  C1086     1.08074      .   S
    C1880  C1879     1.48383      .   S
    C1880  C1881     1.40278      .   S
    C800   C799      1.48674      .   S
    C1856  C1857     1.40272      .   S
    C1856  C1855     1.48465      .   S
    C1664  C1663     1.48662      .   S
    H642   C630      1.08043      .   S
    H834   C822      1.08128      .   S
    H1696  C1683     1.08102      .   S
    C1858  H1869     1.08343      .   S
    C1858  C1857     1.39524      .   S
    C2047  C2046     1.34283      .   S
    C1878  C1879     1.34136      .   S
    C1878  C1874     1.48376      .   S
    H1095  C1081     1.08361      .   S
    C2072  C2071     1.47949      .   S
    C2072  C2073     1.40169      .   S
    C1882  C1881     1.39461      .   S
    C1882  H1893     1.08347      .   S
    H831   C817      1.08377      .   S
    C608   C609      1.40336      .   S
    C608   C607      1.48809      .   S
    H639   C625      1.08391      .   S
    C1687  C1686     1.34087      .   S
    C610   H621      1.08340      .   S
    C610   C609      1.39620      .   S
    H1123  C1111     1.08240      .   S
    C1854  C1855     1.34138      .   S
    C1854  C1850     1.48444      .   S
    H1120  C1107     1.08109      .   S
    C2074  H2085     1.08237      .   S
    C2074  C2073     1.39429      .   S
    H810   C798      1.08045      .   S
    H2179  C2167     1.08256      .   S
    H2056  C2043     1.08104      .   S
    C2143  C2142     1.34019      .   S
    H2176  C2163     1.08193      .   S
    H1674  C1662     1.08067      .   S
    C2070  C2071     1.33923      .   S
    C2070  C2066     1.48027      .   S
    C1873  C1874     1.40203      .   S
    C1873  C1872     1.39685      .   S
    C606   C607      1.34191      .   S
    C606   C602      1.48611      .   S
    C414   C415      1.34224      .   S
    C414   C410      1.48334      .   S
    C1111  C1110     1.34166      .   S
    C2053  H2063     1.08046      .   S
    H807   C793      1.08370      .   S
    C2167  C2166     1.34143      .   S
    H1671  C1657     1.08388      .   S
    C415   H427      1.08233      .   S
    C1087  C1086     1.34299      .   S
    C1087  H1099     1.08152      .   S
    C1849  C1850     1.40088      .   S
    C1849  C1848     1.39586      .   S
    C438   C439      1.34205      .   S
    C438   C434      1.48595      .   S
    C631   C630      1.34065      .   S
    C631   H643      1.08109      .   S
    C1086  C1082     1.48480      .   S
    C601   C602      1.40096      .   S
    C601   C600      1.39371      .   S
    C2065  C2066     1.40065      .   S
    C2065  C2064     1.39514      .   S
    H1886  C1872     1.08083      .   S
    C630   C626      1.48220      .   S
    C409   C410      1.40302      .   S
    C409   C408      1.39760      .   S
    C439   H451      1.08159      .   S
    C822   C823      1.34215      .   S
    C822   C818      1.48280      .   S
    C823   H835      1.08146      .   S
    C1879  H1891     1.08198      .   S
    H614   C600      1.08059      .   S
    C799   C798      1.34151      .   S
    C799   H811      1.08128      .   S
    C1881  H1892     1.08391      .   S
    C1857  H1868     1.08332      .   S
    C1663  C1662     1.34101      .   S
    C1663  H1675     1.08109      .   S
    C1855  H1867     1.08255      .   S
    H1862  C1848     1.08044      .   S
    C798   C794      1.48394      .   S
    C433   C434      1.40191      .   S
    C433   C432      1.39588      .   S
    H2078  C2064     1.08061      .   S
    C1662  C1658     1.48374      .   S
    H422   C408      1.08068      .   S
    C1874  C1875     1.40740      .   S
    C2071  H2083     1.08251      .   S
    C609   H620      1.08339      .   S
    H2153  C2140     1.08230      .   S
    C2073  H2084     1.08321      .   S
    C1081  C1082     1.40270      .   S
    C1081  C1080     1.39651      .   S
    C607   H619      1.08136      .   S
    C625   C626      1.40111      .   S
    C625   C624      1.39364      .   S
    C817   C818      1.40171      .   S
    C817   C816      1.39505      .   S
    C1850  C1851     1.40709      .   S
    C1683  C1684     1.40027      .   S
    C1683  C1682     1.40735      .   S
    C1872  C1877     1.40741      .   S
    C2139  C2140     1.39702      .   S
    C2139  C2138     1.40530      .   S
    C1686  H1698     1.08194      .   S
    C1686  C1682     1.48276      .   S
    C2066  C2067     1.40745      .   S
    H446   C432      1.08112      .   S
    H1697  C1684     1.08049      .   S
    C410   C411      1.40677      .   S
    C602   C603      1.41069      .   S
    C1107  C1108     1.39798      .   S
    C1107  C1106     1.40843      .   S
    C793   C794      1.40090      .   S
    C793   C792      1.39303      .   S
    H2057  C2044     1.08144      .   S
    C1848  C1853     1.41137      .   S
    C2163  C2164     1.39595      .   S
    C2163  C2162     1.40665      .   S
    C1110  H1122     1.08159      .   S
    C1110  C1106     1.48317      .   S
    C600   C605      1.40737      .   S
    C2064  C2069     1.40699      .   S
    C2043  C2044     1.40029      .   S
    C2043  C2042     1.40803      .   S
    C1657  C1658     1.40064      .   S
    C1657  C1656     1.39206      .   S
    H1121  C1108     1.08116      .   S
    H2177  C2164     1.08074      .   S
    H1094  C1080     1.08158      .   S
    C434   C435      1.40911      .   S
    C1082  C1083     1.40863      .   S
    H830   C816      1.07995      .   S
    C408   C413      1.40692      .   S
    H638   C624      1.08062      .   S
    C2166  H2178     1.08177      .   S
    C2166  C2162     1.48322      .   S
    C626   C627      1.40892      .   S
    C2142  H2154     1.08575      .   S
    C2142  C2138     1.47716      .   S
    C818   C819      1.40832      .   S
    C2046  C2042     1.48447      .   S
    C2046  H2058     1.08070      .   S
    C432   C437      1.40591      .   S
    C794   C795      1.40966      .   S
    H806   C792      1.08085      .   S
    C1658  C1659     1.40985      .   S
    C2140  C2141     1.40414      .   S
    C1080  C1085     1.40562      .   S
    H1670  C1656     1.08096      .   S
    C624   C629      1.40642      .   S
    C1684  C1685     1.41048      .   S
    C1682  C1681     1.39971      .   S
    C816   C821      1.40689      .   S
    C1108  C1109     1.40563      .   S
    C2044  C2045     1.40669      .   S
    C2164  C2165     1.40674      .   S
    C1106  C1105     1.40239      .   S
    C792   C797      1.40547      .   S
    C2162  C2161     1.40165      .   S
    C1656  C1661     1.40612      .   S
    C2138  C2137     1.40217      .   S
    C2042  C2041     1.40204      .   S
    C1875  H1888     1.08126      .   S
    C1875  C1876     1.39831      .   S
    C1851  H1864     1.08132      .   S
    C1851  C1852     1.39850      .   S
    C1877  C1876     1.40648      .   S
    C2067  H2080     1.08110      .   S
    C2067  C2068     1.39604      .   S
    C1083  H1096     1.08052      .   S
    C1083  C1084     1.39866      .   S
    C411   H424      1.08145      .   S
    C411   C412      1.39742      .   S
    C627   H640      1.08083      .   S
    C627   C628      1.39946      .   S
    C2069  C2068     1.40599      .   S
    C1853  C1852     1.40995      .   S
    C435   H448      1.08136      .   S
    C435   C436      1.40112      .   S
    C603   H616      1.08093      .   S
    C603   C604      1.40335      .   S
    C819   H832      1.08081      .   S
    C819   C820      1.39937      .   S
    C413   C412      1.40650      .   S
    C795   H808      1.08087      .   S
    C795   C796      1.40147      .   S
    C605   C604      1.40564      .   S
    C1659  H1672     1.08051      .   S
    C1659  C1660     1.40229      .   S
    C1085  C1084     1.40521      .   S
    C629   C628      1.40585      .   S
    C437   C436      1.40579      .   S
    C821   C820      1.40641      .   S
    C1876  H1889     1.08105      .   S
    C797   C796      1.40571      .   S
    C1681  H1695     1.08361      .   S
    C1681  C1680     1.39430      .   S
    C1685  C1680     1.41091      .   S
    C1661  C1660     1.40596      .   S
    C1852  H1865     1.08128      .   S
    C2068  H2081     1.08064      .   S
    C1109  C1104     1.40631      .   S
    C2141  C2136     1.40322      .   S
    C1084  H1097     1.08184      .   S
    C1105  H1119     1.08324      .   S
    C1105  C1104     1.39714      .   S
    C2165  C2160     1.40676      .   S
    C412   H425      1.08161      .   S
    C628   H641      1.08138      .   S
    C2045  C2040     1.40658      .   S
    C2161  H2175     1.08375      .   S
    C2161  C2160     1.39784      .   S
    C436   H449      1.08192      .   S
    C820   H833      1.08143      .   S
    C604   H617      1.08135      .   S
    C796   H809      1.08191      .   S
    C1660  H1673     1.08176      .   S
    C2041  C2040     1.39532      .   S
    C2041  H2055     1.08428      .   S
    C2137  C2136     1.39952      .   S
    C2137  H2151     1.08251      .   S
    C1680  H1694     1.08006      .   S
    C1104  H1118     1.08083      .   S
    C2160  H2174     1.08042      .   S
    C2040  H2054     1.08115      .   S
    C2136  H2150     1.08244      .   S
    H141   C130      1.08260      .   S
    H69    C58       1.08326      .   S
    H1413  C1402     1.08334      .   S
    H165   C154      1.08329      .   S
    H1486  C1476     1.08291      .   S
    H46    C36       1.08285      .   S
    H1390  C1380     1.08382      .   S
    H1510  C1500     1.08293      .   S
    C131   C130      1.40539      .   S
    C131   C132      1.40477      .   S
    C130   C129      1.39580      .   S
    C1403  C1402     1.40404      .   S
    C1403  C1404     1.40376      .   S
    C58    C59       1.40576      .   S
    C58    C57       1.39483      .   S
    C155   C154      1.40434      .   S
    C155   C156      1.40309      .   S
    C59    C60       1.40252      .   S
    C1402  C1401     1.39488      .   S
    C154   C153      1.39503      .   S
    C1379  C1380     1.40463      .   S
    C1379  C1378     1.40414      .   S
    C1475  C1476     1.40387      .   S
    C1475  C1474     1.40463      .   S
    C35    C36       1.40275      .   S
    C35    C34       1.40438      .   S
    C1476  C1477     1.39744      .   S
    C1499  C1500     1.40408      .   S
    C1499  C1498     1.40495      .   S
    C1380  C1381     1.39787      .   S
    C36    C37       1.39764      .   S
    C1500  C1501     1.39835      .   S
    C132   H142      1.08279      .   S
    C132   C133      1.39995      .   S
    H1389  C1378     1.08326      .   S
    C129   H140      1.08330      .   S
    C129   C128      1.40240      .   S
    H1485  C1474     1.08261      .   S
    H68    C57       1.08369      .   S
    H45    C34       1.08306      .   S
    C1378  C1377     1.39844      .   S
    C1404  H1414     1.08279      .   S
    C1404  C1405     1.39913      .   S
    C156   H166      1.08326      .   S
    C156   C157      1.39807      .   S
    C57    C56       1.40283      .   S
    C1474  C1473     1.39735      .   S
    H1412  C1401     1.08387      .   S
    C1401  C1400     1.40318      .   S
    H164   C153      1.08338      .   S
    C153   C152      1.40248      .   S
    C34    C33       1.39739      .   S
    C60    H70       1.08329      .   S
    C60    C61       1.39959      .   S
    H1509  C1498     1.08317      .   S
    C1498  C1497     1.39837      .   S
    C1477  H1487     1.08018      .   S
    C1477  C1472     1.40943      .   S
    C37    H47       1.08030      .   S
    C37    C32       1.41035      .   S
    C1381  H1391     1.08025      .   S
    C1381  C1376     1.40923      .   S
    C1501  H1511     1.08070      .   S
    C1501  C1496     1.40934      .   S
    C133   C128      1.40982      .   S
    C133   H143      1.08092      .   S
    C128   C127      1.48535      .   S
    C1405  C1400     1.41032      .   S
    C1405  H1415     1.08036      .   S
    C157   C152      1.41029      .   S
    C157   H167      1.08085      .   S
    C1473  C1472     1.40378      .   S
    C1473  H1484     1.08331      .   S
    C1377  C1376     1.40420      .   S
    C1377  H1388     1.08309      .   S
    C1400  C1399     1.48471      .   S
    C152   C151      1.48336      .   S
    C56    C61       1.41088      .   S
    C56    C55       1.48512      .   S
    C33    C32       1.40383      .   S
    C33    H44       1.08357      .   S
    C61    H71       1.08106      .   S
    C1472  C1471     1.48508      .   S
    C1497  C1496     1.40390      .   S
    C1497  H1508     1.08355      .   S
    C32    C31       1.48612      .   S
    C1376  C1375     1.48563      .   S
    C1496  C1495     1.48679      .   S
    C127   H139      1.08122      .   S
    C127   C126      1.34077      .   S
    H1482  C1470     1.08085      .   S
    H42    C30       1.08105      .   S
    C1399  H1411     1.08244      .   S
    C1399  C1398     1.34131      .   S
    C151   H163      1.08202      .   S
    C151   C150      1.34047      .   S
    H67    C55       1.08234      .   S
    C55    C54       1.33980      .   S
    H1386  C1374     1.08155      .   S
    C1471  C1470     1.34129      .   S
    C1471  H1483     1.08237      .   S
    C31    C30       1.34206      .   S
    C31    H43       1.08156      .   S
    H1506  C1494     1.08168      .   S
    C1375  C1374     1.34280      .   S
    C1375  H1387     1.08179      .   S
    C1495  C1494     1.34235      .   S
    C1495  H1507     1.08162      .   S
    C1470  C1466     1.48382      .   S
    C30    C26       1.48387      .   S
    C1374  C1370     1.48560      .   S
    C1494  C1490     1.48574      .   S
    H138   C126      1.08156      .   S
    C126   C122      1.48445      .   S
    H162   C150      1.08144      .   S
    H1410  C1398     1.08045      .   S
    H66    C54       1.08146      .   S
    C150   C146      1.48277      .   S
    C1398  C1394     1.48342      .   S
    C54    C50       1.48381      .   S
    C1466  C1465     1.40100      .   S
    C1466  C1467     1.40827      .   S
    H1262  C1248     1.08082      .   S
    H39    C25       1.08359      .   S
    H374   C360      1.08096      .   S
    C26    C25       1.40080      .   S
    C26    C27       1.40960      .   S
    C1253  C1248     1.40733      .   S
    C1253  C1252     1.40629      .   S
    H1479  C1465     1.08353      .   S
    C1370  C1371     1.40755      .   S
    C1370  C1369     1.40226      .   S
    C365   C360      1.40666      .   S
    C365   C364      1.40689      .   S
    C197   C192      1.40648      .   S
    C197   C196      1.40628      .   S
    H1480  C1467     1.08114      .   S
    C1490  C1489     1.40185      .   S
    C1490  C1491     1.40873      .   S
    H1238  C1224     1.08101      .   S
    H1384  C1371     1.08125      .   S
    C1229  C1224     1.40688      .   S
    C1229  C1228     1.40677      .   S
    H206   C192      1.08097      .   S
    C122   C123      1.40720      .   S
    C122   C121      1.40019      .   S
    C293   C292      1.40663      .   S
    C293   C288      1.40676      .   S
    C1157  C1152     1.41081      .   S
    C1157  C1156     1.41073      .   S
    H1383  C1369     1.08324      .   S
    C269   C264      1.40692      .   S
    C269   C268      1.40665      .   S
    H40    C27       1.08091      .   S
    H1503  C1489     1.08263      .   S
    H64    C51       1.08092      .   S
    H209   C196      1.08152      .   S
    H1408  C1395     1.08162      .   S
    H1166  C1152     1.08013      .   S
    H1504  C1491     1.08068      .   S
    H278   C264      1.08113      .   S
    H136   C123      1.08178      .   S
    C146   C147      1.40892      .   S
    C146   C145      1.40068      .   S
    H160   C147      1.08085      .   S
    C1394  C1395     1.40826      .   S
    C1394  C1393     1.40162      .   S
    C50    C51       1.40902      .   S
    C50    C49       1.39821      .   S
    C1325  C1320     1.40579      .   S
    C1325  C1324     1.40645      .   S
    H305   C292      1.08148      .   S
    H1265  C1252     1.08099      .   S
    H302   C288      1.08119      .   S
    H135   C121      1.08325      .   S
    C25    C24       1.39379      .   S
    C1248  C1249     1.39558      .   S
    C1465  C1464     1.39482      .   S
    C360   C361      1.39729      .   S
    H377   C364      1.08140      .   S
    C1467  C1468     1.39953      .   S
    H1241  C1228     1.08142      .   S
    H281   C268      1.08063      .   S
    H1334  C1320     1.08058      .   S
    H1169  C1156     1.08070      .   S
    H1337  C1324     1.08086      .   S
    C27    C28       1.40134      .   S
    C1371  C1372     1.39832      .   S
    C1224  C1225     1.39820      .   S
    C192   C193      1.39706      .   S
    C1369  C1368     1.39774      .   S
    H159   C145      1.08391      .   S
    C196   C195      1.40001      .   S
    C1489  C1488     1.39548      .   S
    C1252  C1251     1.40032      .   S
    C1491  C1492     1.40190      .   S
    C123   C124      1.40040      .   S
    H1407  C1393     1.08354      .   S
    C1152  C1153     1.39951      .   S
    C264   C265      1.39777      .   S
    C364   C363      1.40225      .   S
    C1395  C1396     1.39938      .   S
    C51    C52       1.40192      .   S
    H63    C49       1.08341      .   S
    C147   C148      1.39879      .   S
    C292   C291      1.39932      .   S
    C288   C289      1.39698      .   S
    C121   C120      1.39471      .   S
    C1228  C1227     1.39774      .   S
    C268   C267      1.39696      .   S
    C1156  C1155     1.39621      .   S
    C1320  C1321     1.39585      .   S
    C1324  C1323     1.39757      .   S
    C145   C144      1.39427      .   S
    C1393  C1392     1.39541      .   S
    C49    C48       1.39269      .   S
    C1249  H1263     1.08376      .   S
    C1249  C1250     1.40078      .   S
    C24    H38       1.08121      .   S
    C24    C29       1.40594      .   S
    C361   H375      1.08325      .   S
    C361   C362      1.40184      .   S
    C1464  H1478     1.08082      .   S
    C1464  C1469     1.40674      .   S
    C1468  H1481     1.08200      .   S
    C1468  C1469     1.40653      .   S
    C1225  H1239     1.08358      .   S
    C1225  C1226     1.40315      .   S
    C28    H41       1.08192      .   S
    C28    C29       1.40553      .   S
    C1372  H1385     1.08099      .   S
    C1372  C1373     1.40678      .   S
    C193   H207      1.08299      .   S
    C193   C194      1.40255      .   S
    C1251  C1250     1.40884      .   S
    C1251  H1264     1.08132      .   S
    C1368  H1382     1.08097      .   S
    C1368  C1373     1.40643      .   S
    C1488  H1502     1.08034      .   S
    C1488  C1493     1.40691      .   S
    C124   H137      1.08127      .   S
    C124   C125      1.41085      .   S
    C195   H208      1.08152      .   S
    C195   C194      1.40842      .   S
    C1396  H1409     1.08192      .   S
    C1396  C1397     1.40478      .   S
    C1492  H1505     1.08110      .   S
    C1492  C1493     1.40679      .   S
    C363   C362      1.40969      .   S
    C363   H376      1.08094      .   S
    C148   H161      1.08117      .   S
    C148   C149      1.40621      .   S
    C52    H65       1.08131      .   S
    C52    C53       1.41034      .   S
    C1153  H1167     1.08314      .   S
    C1153  C1154     1.40219      .   S
    C265   H279      1.08337      .   S
    C265   C266      1.40209      .   S
    C120   H134      1.07995      .   S
    C120   C125      1.41131      .   S
    C1227  H1240     1.08081      .   S
    C1227  C1226     1.40754      .   S
    C291   H304      1.08068      .   S
    C291   C290      1.40843      .   S
    C289   H303      1.08336      .   S
    C289   C290      1.40225      .   S
    C1155  H1168     1.08127      .   S
    C1155  C1154     1.40478      .   S
    C267   H280      1.08144      .   S
    C267   C266      1.40711      .   S
    C144   C149      1.40739      .   S
    C144   H158      1.08046      .   S
    C1321  H1335     1.08382      .   S
    C1321  C1322     1.40220      .   S
    C1323  H1336     1.08203      .   S
    C1323  C1322     1.40710      .   S
    C1392  C1397     1.40687      .   S
    C1392  H1406     1.08118      .   S
    C48    C53       1.41135      .   S
    C48    H62       1.07935      .   S
    C1250  C1254     1.48518      .   S
    C362   C366      1.48840      .   S
    C1226  C1230     1.48649      .   S
    C194   C198      1.48572      .   S
    C1154  C1158     1.48399      .   S
    C290   C294      1.48598      .   S
    C266   C270      1.48288      .   S
    C1322  C1326     1.48154      .   S
    C1254  H1266     1.08088      .   S
    C1254  C1255     1.34098      .   S
    H211   C199      1.08185      .   S
    C366   H378      1.08068      .   S
    C366   C367      1.34279      .   S
    C1230  H1242     1.08082      .   S
    C1230  C1231     1.34264      .   S
    H283   C271      1.08258      .   S
    H1171  C1159     1.08167      .   S
    H307   C295      1.08117      .   S
    C198   C199      1.34217      .   S
    C198   H210      1.08096      .   S
    H1339  C1327     1.08136      .   S
    C1158  C1159     1.34327      .   S
    C1158  H1170     1.08146      .   S
    C270   C271      1.34232      .   S
    C270   H282      1.08170      .   S
    C294   C295      1.34324      .   S
    C294   H306      1.08096      .   S
    C1326  C1327     1.34192      .   S
    C1326  H1338     1.08085      .   S
    C199   C200      1.48721      .   S
    C1159  C1160     1.48408      .   S
    C271   C272      1.48318      .   S
    C295   C296      1.48713      .   S
    C1327  C1328     1.48277      .   S
    H1267  C1255     1.08155      .   S
    C1255  C1256     1.48532      .   S
    H379   C367      1.08196      .   S
    H1243  C1231     1.08135      .   S
    C367   C368      1.48907      .   S
    C1231  C1232     1.48608      .   S
    H212   C201      1.08332      .   S
    H1271  C1261     1.08026      .   S
    H284   C273      1.08334      .   S
    H1172  C1161     1.08322      .   S
    H308   C297      1.08348      .   S
    H1247  C1237     1.08092      .   S
    H1340  C1329     1.08379      .   S
    H383   C373      1.08078      .   S
    C200   C201      1.40381      .   S
    C200   C205      1.41013      .   S
    C1160  C1161     1.40467      .   S
    C1160  C1165     1.40799      .   S
    C272   C273      1.40375      .   S
    C272   C277      1.40818      .   S
    C201   C202      1.39737      .   S
    C296   C297      1.40377      .   S
    C296   C301      1.40992      .   S
    C1328  C1329     1.40369      .   S
    C1328  C1333     1.40895      .   S
    C273   C274      1.39712      .   S
    C1161  C1162     1.39750      .   S
    C1261  C1256     1.41046      .   S
    C1261  C1260     1.40004      .   S
    C1256  C1257     1.40298      .   S
    C297   C298      1.39804      .   S
    C1329  C1330     1.39644      .   S
    C1232  C1237     1.41038      .   S
    C1232  C1233     1.40294      .   S
    C1237  C1236     1.39991      .   S
    C368   C373      1.41092      .   S
    C368   C369      1.40384      .   S
    C373   C372      1.40191      .   S
    H215   C205      1.08058      .   S
    C205   C204      1.39903      .   S
    H1175  C1165     1.08093      .   S
    H311   C301      1.08067      .   S
    H287   C277      1.08071      .   S
    C1165  C1164     1.39697      .   S
    C301   C300      1.39909      .   S
    C277   C276      1.39656      .   S
    C202   H213      1.08281      .   S
    C202   C203      1.40497      .   S
    H1343  C1333     1.08056      .   S
    C1333  C1332     1.39613      .   S
    H1270  C1260     1.08281      .   S
    C1162  H1173     1.08329      .   S
    C1162  C1163     1.40446      .   S
    C274   H285      1.08303      .   S
    C274   C275      1.40428      .   S
    C1260  C1259     1.40386      .   S
    C1257  H1268     1.08375      .   S
    C1257  C1258     1.39501      .   S
    C298   H309      1.08292      .   S
    C298   C299      1.40462      .   S
    H1246  C1236     1.08296      .   S
    C1233  H1244     1.08342      .   S
    C1233  C1234     1.39565      .   S
    C1236  C1235     1.40501      .   S
    C1330  H1341     1.08300      .   S
    C1330  C1331     1.40373      .   S
    C369   H380      1.08318      .   S
    C369   C370      1.39684      .   S
    H382   C372      1.08337      .   S
    C372   C371      1.40358      .   S
    C204   C203      1.40506      .   S
    C204   H214      1.08277      .   S
    C1164  C1163     1.40576      .   S
    C1164  H1174     1.08323      .   S
    C300   C299      1.40402      .   S
    C300   H310      1.08317      .   S
    C276   C275      1.40468      .   S
    C276   H286      1.08303      .   S
    C1332  C1331     1.40307      .   S
    C1332  H1342     1.08287      .   S
    C1259  C1258     1.40503      .   S
    C1258  H1269     1.08334      .   S
    C1234  C1235     1.40505      .   S
    C1234  H1245     1.08268      .   S
    C370   C371      1.40572      .   S
    C370   H381      1.08266      .   S
    H1742  C1728     1.08040      .   S
    H1814  C1800     1.08033      .   S
    H1550  C1536     1.08029      .   S
    H758   C744      1.08097      .   S
    H566   C552      1.08075      .   S
    H1622  C1608     1.08087      .   S
    H494   C480      1.08082      .   S
    H689   C676      1.08141      .   S
    H881   C868      1.08100      .   S
    H2225  C2212     1.08103      .   S
    H953   C940      1.08136      .   S
    H977   C964      1.08123      .   S
    H1743  C1729     1.08322      .   S
    H2297  C2284     1.08058      .   S
    C1728  C1729     1.39804      .   S
    C1728  C1733     1.40668      .   S
    H1937  C1924     1.08124      .   S
    H1815  C1801     1.08374      .   S
    C1536  C1537     1.39874      .   S
    C1536  C1541     1.41068      .   S
    C1800  C1801     1.39616      .   S
    C1800  C1805     1.40674      .   S
    C744   C745      1.39570      .   S
    C744   C749      1.40646      .   S
    H1551  C1537     1.08380      .   S
    H1046  C1032     1.08110      .   S
    C1608  C1609     1.39700      .   S
    C1608  C1613     1.40701      .   S
    C480   C481      1.39493      .   S
    C480   C485      1.40664      .   S
    C552   C553      1.39614      .   S
    C552   C557      1.40685      .   S
    H759   C745      1.08284      .   S
    H1623  C1609     1.08380      .   S
    H495   C481      1.08363      .   S
    H567   C553      1.08350      .   S
    H2006  C1992     1.08241      .   S
    C1729  C1730     1.40302      .   S
    C868   C869      1.40691      .   S
    C868   C867      1.40097      .   S
    C676   C677      1.40649      .   S
    C676   C675      1.40156      .   S
    C1733  C1732     1.40652      .   S
    C940   C941      1.40687      .   S
    C940   C939      1.39894      .   S
    C964   C965      1.40669      .   S
    C964   C963      1.40063      .   S
    C2212  C2213     1.40597      .   S
    C2212  C2211     1.39887      .   S
    C1537  C1538     1.40170      .   S
    C1801  C1802     1.40284      .   S
    C745   C746      1.40151      .   S
    H688   C675      1.08069      .   S
    H880   C867      1.08093      .   S
    C1924  C1925     1.40667      .   S
    C1924  C1923     1.40144      .   S
    C749   C748      1.40634      .   S
    C1541  C1540     1.41100      .   S
    C481   C482      1.40160      .   S
    C1609  C1610     1.40146      .   S
    C2284  C2285     1.40704      .   S
    C2284  C2283     1.39896      .   S
    C485   C484      1.40579      .   S
    C1613  C1612     1.40505      .   S
    C553   C554      1.40125      .   S
    H952   C939      1.08098      .   S
    C1805  C1804     1.40711      .   S
    C1032  C1037     1.40661      .   S
    C1032  C1033     1.39434      .   S
    C557   C556      1.40653      .   S
    H2224  C2211     1.08071      .   S
    C869   C864      1.40643      .   S
    H976   C963      1.08088      .   S
    C1992  C1997     1.40532      .   S
    C1992  C1993     1.39479      .   S
    C677   C672      1.40775      .   S
    H1936  C1923     1.08033      .   S
    C965   C960      1.40646      .   S
    H2296  C2283     1.08115      .   S
    C1037  C1036     1.40560      .   S
    C941   C936      1.40697      .   S
    C867   C866      1.40825      .   S
    C1925  C1920     1.40655      .   S
    C675   C674      1.40858      .   S
    C1997  C1996     1.40499      .   S
    C2213  C2208     1.40724      .   S
    C939   C938      1.40827      .   S
    H1047  C1033     1.08374      .   S
    C2285  C2280     1.40695      .   S
    C963   C962      1.40869      .   S
    C2211  C2210     1.40817      .   S
    C1923  C1922     1.40946      .   S
    H2007  C1993     1.08365      .   S
    C2283  C2282     1.40772      .   S
    C1033  C1034     1.40032      .   S
    H1746  C1734     1.08098      .   S
    C1993  C1994     1.40104      .   S
    H2228  C2217     1.08325      .   S
    H2227  C2215     1.08197      .   S
    C1730  C1734     1.48624      .   S
    C1730  C1731     1.40818      .   S
    H762   C750      1.08229      .   S
    H1818  C1806     1.08160      .   S
    H498   C486      1.08170      .   S
    C1732  C1731     1.39977      .   S
    C1732  H1745     1.08170      .   S
    C746   C750      1.48095      .   S
    C746   C747      1.40688      .   S
    C1538  C1542     1.48558      .   S
    C1538  C1539     1.40641      .   S
    C748   H761      1.08073      .   S
    C748   C747      1.39777      .   S
    C1802  C1806     1.48496      .   S
    C1802  C1803     1.40823      .   S
    C482   C486      1.48022      .   S
    C482   C483      1.40655      .   S
    C484   H497      1.08170      .   S
    C484   C483      1.39762      .   S
    C1540  H1553     1.07985      .   S
    C1540  C1539     1.39725      .   S
    C1036  H1049     1.08181      .   S
    C1036  C1035     1.39938      .   S
    C1610  C1614     1.48136      .   S
    C1610  C1611     1.40707      .   S
    C864   H878      1.08048      .   S
    C864   C865      1.39659      .   S
    C1996  H2009     1.08231      .   S
    C1996  C1995     1.40059      .   S
    C1612  H1625     1.08179      .   S
    C1612  C1611     1.39627      .   S
    C554   C558      1.48212      .   S
    C554   C555      1.40707      .   S
    C960   H974      1.08091      .   S
    C960   C961      1.39511      .   S
    C1804  C1803     1.39912      .   S
    C1804  H1817     1.08099      .   S
    H1554  C1542     1.08179      .   S
    C556   H569      1.08082      .   S
    C556   C555      1.39785      .   S
    H1751  C1741     1.08043      .   S
    C672   H686      1.08062      .   S
    C672   C673      1.39572      .   S
    C1920  H1934     1.08087      .   S
    C1920  C1921     1.39737      .   S
    C866   C865      1.40207      .   S
    C866   C870      1.48565      .   S
    C1734  C1735     1.34388      .   S
    C936   H950      1.08035      .   S
    C936   C937      1.39632      .   S
    H1626  C1614     1.08164      .   S
    H767   C757      1.08117      .   S
    H570   C558      1.08147      .   S
    H1823  C1813     1.08069      .   S
    C674   C673      1.40239      .   S
    C674   C678      1.48601      .   S
    H503   C493      1.08114      .   S
    C1034  C1035     1.40807      .   S
    C1034  C1038     1.48019      .   S
    H691   C679      1.08161      .   S
    C962   C961      1.40242      .   S
    C962   C966      1.48492      .   S
    H883   C871      1.08156      .   S
    C2208  H2222     1.08046      .   S
    C2208  C2209     1.39622      .   S
    C1731  H1744     1.08104      .   S
    C938   C937      1.40146      .   S
    C938   C942      1.48426      .   S
    C750   C751      1.34056      .   S
    C1922  C1921     1.40335      .   S
    C1922  C1926     1.48843      .   S
    C1994  C1995     1.40829      .   S
    C1994  C1998     1.48066      .   S
    C1542  C1543     1.34262      .   S
    C2280  H2294     1.08101      .   S
    C2280  C2281     1.39839      .   S
    C1806  C1807     1.34247      .   S
    C747   H760      1.08092      .   S
    H955   C943      1.08114      .   S
    C486   C487      1.34092      .   S
    C1539  H1552     1.08128      .   S
    C483   H496      1.08129      .   S
    C2210  C2209     1.40099      .   S
    C2210  C2214     1.48371      .   S
    C1614  C1615     1.33996      .   S
    H1939  C1927     1.08231      .   S
    C1035  H1048     1.08204      .   S
    C1611  H1624     1.08138      .   S
    C1803  H1816     1.08094      .   S
    C2282  C2281     1.40300      .   S
    C2282  C2286     1.48598      .   S
    H979   C967      1.08091      .   S
    C1995  H2008     1.08211      .   S
    C558   C559      1.34087      .   S
    C865   H879      1.08339      .   S
    C555   H568      1.08163      .   S
    C2217  C2218     1.39557      .   S
    C2217  C2216     1.40254      .   S
    C961   H975      1.08347      .   S
    C2215  C2214     1.34126      .   S
    C2215  C2216     1.48349      .   S
    H2299  C2287     1.08201      .   S
    H2229  C2218     1.08284      .   S
    C1921  H1935     1.08276      .   S
    C673   H687      1.08298      .   S
    C937   H951      1.08300      .   S
    C871   C870      1.34323      .   S
    C871   C872      1.48746      .   S
    C870   H882      1.08129      .   S
    C679   C678      1.34295      .   S
    C679   C680      1.48728      .   S
    C1038  H1050     1.07874      .   S
    C1038  C1039     1.34043      .   S
    C678   H690      1.08168      .   S
    C943   C942      1.34253      .   S
    C943   C944      1.48494      .   S
    H1750  C1740     1.08299      .   S
    C1998  H2010     1.07978      .   S
    C1998  C1999     1.34152      .   S
    C2209  H2223     1.08366      .   S
    C966   C967      1.34267      .   S
    C966   H978      1.08074      .   S
    H2011  C1999     1.08236      .   S
    C2281  H2295     1.08324      .   S
    C1927  C1926     1.34443      .   S
    C1927  C1928     1.48949      .   S
    C942   H954      1.08065      .   S
    C1926  H1938     1.08135      .   S
    C967   C968      1.48740      .   S
    C1741  C1740     1.39951      .   S
    C1741  C1736     1.40957      .   S
    H1051  C1039     1.08247      .   S
    H766   C756      1.08343      .   S
    H1822  C1812     1.08315      .   S
    C1543  H1555     1.08163      .   S
    C1543  C1544     1.48502      .   S
    H502   C492      1.08298      .   S
    C2287  C2286     1.34326      .   S
    C2287  C2288     1.48663      .   S
    C2214  H2226     1.08179      .   S
    C1999  C2000     1.48654      .   S
    C1615  H1627     1.08250      .   S
    C1615  C1616     1.48160      .   S
    C2286  H2298     1.08166      .   S
    C757   C756      1.39563      .   S
    C757   C752      1.40837      .   S
    C1039  C1040     1.48656      .   S
    C2218  C2219     1.40569      .   S
    C1813  C1812     1.39815      .   S
    C1813  C1808     1.40956      .   S
    C493   C492      1.39525      .   S
    C493   C488      1.40812      .   S
    C2216  C2221     1.40954      .   S
    C559   H571      1.08197      .   S
    C559   C560      1.48181      .   S
    H692   C681      1.08294      .   S
    H884   C873      1.08306      .   S
    C1735  C1736     1.48774      .   S
    C1735  H1747     1.08144      .   S
    H2015  C2005     1.07941      .   S
    H956   C945      1.08309      .   S
    H1559  C1549     1.08054      .   S
    C872   C873      1.40424      .   S
    C872   C877      1.40921      .   S
    C680   C681      1.40420      .   S
    C680   C685      1.40965      .   S
    C751   C752      1.48161      .   S
    C751   H763      1.08275      .   S
    H1940  C1929     1.08302      .   S
    H1055  C1045     1.07867      .   S
    H1631  C1621     1.08040      .   S
    C1740  C1739     1.40434      .   S
    C944   C945      1.40427      .   S
    C944   C949      1.40925      .   S
    C1807  C1808     1.48625      .   S
    C1807  H1819     1.08149      .   S
    C487   C488      1.48129      .   S
    C487   H499      1.08200      .   S
    H980   C969      1.08329      .   S
    C1544  C1549     1.40938      .   S
    C1544  C1545     1.40333      .   S
    H2300  C2289     1.08359      .   S
    C1928  C1929     1.40552      .   S
    C1928  C1933     1.41002      .   S
    C873   C874      1.39800      .   S
    C681   C682      1.39844      .   S
    H887   C877      1.08079      .   S
    C968   C969      1.40390      .   S
    C968   C973      1.41046      .   S
    H575   C565      1.08115      .   S
    C756   C755      1.40347      .   S
    C1616  C1621     1.40932      .   S
    C1616  C1617     1.40314      .   S
    C2000  C2005     1.41075      .   S
    C2000  C2001     1.40329      .   S
    C1549  C1548     1.40043      .   S
    H695   C685      1.08071      .   S
    C945   C946      1.39776      .   S
    C1812  C1811     1.40418      .   S
    C492   C491      1.40397      .   S
    C2005  C2004     1.39957      .   S
    C1040  C1045     1.41159      .   S
    C1040  C1041     1.40361      .   S
    C2288  C2289     1.40504      .   S
    C2288  C2293     1.40876      .   S
    C1929  C1930     1.39882      .   S
    C1621  C1620     1.39842      .   S
    C877   C876      1.39832      .   S
    H959   C949      1.08082      .   S
    C1736  C1737     1.40467      .   S
    H1943  C1933     1.08060      .   S
    C1045  C1044     1.39819      .   S
    C560   C565      1.40927      .   S
    C560   C561      1.40206      .   S
    C685   C684      1.39852      .   S
    H983   C973      1.08019      .   S
    C969   C970      1.39783      .   S
    C2289  C2290     1.39781      .   S
    C565   C564      1.39850      .   S
    C949   C948      1.39692      .   S
    C752   C753      1.40370      .   S
    C1933  C1932     1.39876      .   S
    H1556  C1545     1.08392      .   S
    C1808  C1809     1.40461      .   S
    C488   C489      1.40323      .   S
    H1628  C1617     1.08349      .   S
    C973   C972      1.39757      .   S
    C1545  C1546     1.39579      .   S
    H2303  C2293     1.08066      .   S
    H2012  C2001     1.08331      .   S
    C1617  C1618     1.39403      .   S
    H1052  C1041     1.08335      .   S
    C2001  C2002     1.39582      .   S
    C1041  C1042     1.39459      .   S
    H572   C561      1.08357      .   S
    C682   H693      1.08299      .   S
    C682   C683      1.40551      .   S
    C2293  C2292     1.39882      .   S
    C1548  H1558     1.08323      .   S
    C1548  C1547     1.40480      .   S
    C874   H885      1.08331      .   S
    C874   C875      1.40484      .   S
    C2004  H2014     1.08289      .   S
    C2004  C2003     1.40378      .   S
    C561   C562      1.39529      .   S
    C946   H957      1.08290      .   S
    C946   C947      1.40426      .   S
    C1620  H1630     1.08291      .   S
    C1620  C1619     1.40352      .   S
    C1930  H1941     1.08311      .   S
    C1930  C1931     1.40471      .   S
    C1044  H1054     1.08303      .   S
    C1044  C1043     1.40236      .   S
    C876   C875      1.40496      .   S
    C876   H886      1.08333      .   S
    C684   C683      1.40488      .   S
    C684   H694      1.08281      .   S
    C970   H981      1.08333      .   S
    C970   C971      1.40385      .   S
    C564   H574      1.08243      .   S
    C564   C563      1.40434      .   S
    C2290  H2301     1.08325      .   S
    C2290  C2291     1.40391      .   S
    C2219  C2220     1.40397      .   S
    C948   C947      1.40371      .   S
    C948   H958      1.08308      .   S
    C1932  C1931     1.40485      .   S
    C1932  H1942     1.08300      .   S
    C1546  C1547     1.40513      .   S
    C1546  H1557     1.08275      .   S
    C2221  H2231     1.08128      .   S
    C2221  C2220     1.39908      .   S
    C1618  C1619     1.40416      .   S
    C1618  H1629     1.08311      .   S
    C972   C971      1.40341      .   S
    C972   H982      1.08368      .   S
    C2002  C2003     1.40599      .   S
    C2002  H2013     1.08303      .   S
    C1042  C1043     1.40396      .   S
    C1042  H1053     1.08356      .   S
    C2292  C2291     1.40569      .   S
    C2292  H2302     1.08336      .   S
    C562   C563      1.40585      .   S
    C562   H573      1.08266      .   S
    C1739  C1738     1.40466      .   S
    C755   C754      1.40412      .   S
    C1811  C1810     1.40497      .   S
    C491   C490      1.40413      .   S
    C1737  C1738     1.39864      .   S
    C1737  H1748     1.08319      .   S
    C2220  H2230     1.08307      .   S
    C753   C754      1.39692      .   S
    C753   H764      1.08347      .   S
    C1809  C1810     1.39759      .   S
    C1809  H1820     1.08341      .   S
    C489   C490      1.39718      .   S
    C489   H500      1.08331      .   S
    C1738  H1749     1.08290      .   S
    C754   H765      1.08270      .   S
    C1810  H1821     1.08311      .   S
    C490   H501      1.08302      .   S
    H1917  C1906     1.08301      .   S
    H1916  C1905     1.08339      .   S
    C1906  C1905     1.39719      .   S
    C1906  C1907     1.40484      .   S
    H1653  C1642     1.08263      .   S
    H2133  C2122     1.08325      .   S
    C1905  C1904     1.40437      .   S
    H597   C586      1.08324      .   S
    H1077  C1066     1.08284      .   S
    H789   C778      1.08319      .   S
    C2123  C2122     1.40545      .   S
    C2123  C2124     1.40316      .   S
    H2205  C2194     1.08316      .   S
    H861   C850      1.08255      .   S
    H1725  C1714     1.08323      .   S
    H477   C466      1.08357      .   S
    C1643  C1642     1.40593      .   S
    C1643  C1644     1.40554      .   S
    C587   C586      1.40513      .   S
    C587   C588      1.40363      .   S
    C2122  C2121     1.39628      .   S
    C779   C778      1.40605      .   S
    C779   C780      1.40422      .   S
    H2038  C2028     1.08297      .   S
    C1067  C1066     1.40506      .   S
    C1067  C1068     1.40348      .   S
    C2195  C2194     1.40443      .   S
    C2195  C2196     1.40364      .   S
    H406   C396      1.08393      .   S
    H2109  C2098     1.08340      .   S
    C2027  C2028     1.40412      .   S
    C2027  C2026     1.40433      .   S
    C1642  C1641     1.39771      .   S
    C467   C466      1.40451      .   S
    C467   C468      1.40324      .   S
    C395   C396      1.40260      .   S
    C395   C394      1.40434      .   S
    H1846  C1836     1.08258      .   S
    H1150  C1140     1.08349      .   S
    C851   C850      1.40543      .   S
    C851   C852      1.40407      .   S
    C2099  C2098     1.40460      .   S
    C2099  C2100     1.40320      .   S
    C586   C585      1.39607      .   S
    H670   C660      1.08254      .   S
    C1907  C1908     1.40425      .   S
    C1139  C1140     1.40374      .   S
    C1139  C1138     1.40383      .   S
    C778   C777      1.39572      .   S
    C1066  C1065     1.39625      .   S
    C2194  C2193     1.39529      .   S
    C1835  C1836     1.40491      .   S
    C1835  C1834     1.40520      .   S
    H2134  C2124     1.08268      .   S
    C850   C849      1.39653      .   S
    C1715  C1714     1.40542      .   S
    C1715  C1716     1.40456      .   S
    C466   C465      1.39497      .   S
    C659   C660      1.40569      .   S
    C659   C658      1.40566      .   S
    H2037  C2026     1.08270      .   S
    C2028  C2029     1.39808      .   S
    C2098  C2097     1.39521      .   S
    C2124  C2125     1.39987      .   S
    H598   C588      1.08290      .   S
    C1714  C1713     1.39559      .   S
    H2110  C2100     1.08281      .   S
    H405   C394      1.08330      .   S
    H2206  C2196     1.08295      .   S
    H790   C780      1.08258      .   S
    C396   C397      1.39827      .   S
    H1078  C1068     1.08314      .   S
    H478   C468      1.08287      .   S
    C1140  C1141     1.39658      .   S
    H1149  C1138     1.08271      .   S
    C1836  C1837     1.39908      .   S
    C588   C589      1.39992      .   S
    C2026  C2025     1.39715      .   S
    C660   C661      1.40020      .   S
    H1654  C1644     1.08272      .   S
    C2196  C2197     1.39885      .   S
    C780   C781      1.40043      .   S
    C1068  C1069     1.39920      .   S
    C2100  C2101     1.39899      .   S
    C468   C469      1.40034      .   S
    H862   C852      1.08325      .   S
    C1644  C1645     1.40121      .   S
    C394   C393      1.39793      .   S
    H1845  C1834     1.08234      .   S
    C2121  H2132     1.08375      .   S
    C2121  C2120     1.40292      .   S
    H669   C658      1.08232      .   S
    C1138  C1137     1.39670      .   S
    C852   C853      1.40000      .   S
    C1641  H1652     1.08384      .   S
    C1641  C1640     1.40286      .   S
    C1834  C1833     1.39820      .   S
    C585   H596      1.08367      .   S
    C585   C584      1.40273      .   S
    H1726  C1716     1.08299      .   S
    C658   C657      1.39945      .   S
    C777   H788      1.08395      .   S
    C777   C776      1.40282      .   S
    C2193  H2204     1.08384      .   S
    C2193  C2192     1.40249      .   S
    C1065  H1076     1.08353      .   S
    C1065  C1064     1.40401      .   S
    C1716  C1717     1.39982      .   S
    C849   H860      1.08332      .   S
    C849   C848      1.40406      .   S
    C465   H476      1.08345      .   S
    C465   C464      1.40368      .   S
    C2097  H2108     1.08288      .   S
    C2097  C2096     1.40233      .   S
    C2125  C2120     1.41022      .   S
    C2125  H2135     1.08075      .   S
    C2029  H2039     1.08008      .   S
    C2029  C2024     1.40960      .   S
    H1915  C1903     1.08143      .   S
    C1713  H1724     1.08360      .   S
    C1713  C1712     1.40269      .   S
    C589   C584      1.41063      .   S
    C589   H599      1.08021      .   S
    C2120  C2119     1.48634      .   S
    C2101  C2096     1.41126      .   S
    C2101  H2111     1.08064      .   S
    C1141  H1151     1.08052      .   S
    C1141  C1136     1.40933      .   S
    C2197  C2192     1.40894      .   S
    C2197  H2207     1.08092      .   S
    C781   C776      1.41022      .   S
    C781   H791      1.08030      .   S
    C1069  C1064     1.41072      .   S
    C1069  H1079     1.08034      .   S
    C397   H407      1.07974      .   S
    C397   C392      1.41070      .   S
    C469   C464      1.41027      .   S
    C469   H479      1.08051      .   S
    C2025  C2024     1.40440      .   S
    C2025  H2036     1.08346      .   S
    C661   H671      1.08027      .   S
    C661   C656      1.41025      .   S
    C1837  H1847     1.08099      .   S
    C1837  C1832     1.40930      .   S
    C584   C583      1.48566      .   S
    C1645  C1640     1.40950      .   S
    C1645  H1655     1.08121      .   S
    C853   C848      1.41000      .   S
    C853   H863      1.08060      .   S
    C2192  C2191     1.48232      .   S
    C776   C775      1.48629      .   S
    C1064  C1063     1.48623      .   S
    C1137  C1136     1.40400      .   S
    C1137  H1148     1.08394      .   S
    C2096  C2095     1.48506      .   S
    C393   C392      1.40432      .   S
    C393   H404      1.08340      .   S
    C464   C463      1.48495      .   S
    C1904  C1903     1.48772      .   S
    C1904  C1909     1.40998      .   S
    C1640  C1639     1.48714      .   S
    C848   C847      1.48666      .   S
    C2024  C2023     1.48635      .   S
    C657   C656      1.40492      .   S
    C657   H668      1.08290      .   S
    H2131  C2119     1.08154      .   S
    C1833  C1832     1.40407      .   S
    C1833  H1844     1.08332      .   S
    C1717  C1712     1.40961      .   S
    C1717  H1727     1.08037      .   S
    H2034  C2022     1.08174      .   S
    C1136  C1135     1.48436      .   S
    H1146  C1134     1.08106      .   S
    C392   C391      1.48969      .   S
    C1712  C1711     1.48517      .   S
    H595   C583      1.08113      .   S
    H2031  C2017     1.08284      .   S
    H1143  C1129     1.08299      .   S
    C656   C655      1.49121      .   S
    H787   C775      1.08152      .   S
    H2203  C2191     1.08208      .   S
    H1651  C1639     1.08202      .   S
    C2119  C2118     1.34192      .   S
    H2128  C2115     1.08065      .   S
    H1842  C1830     1.08134      .   S
    H1839  C1825     1.08325      .   S
    C1908  C1909     1.39973      .   S
    C1908  H1918     1.08311      .   S
    C1832  C1831     1.48688      .   S
    H666   C654      1.08054      .   S
    H2107  C2095     1.08117      .   S
    H1075  C1063     1.08159      .   S
    H592   C579      1.08124      .   S
    H859   C847      1.08113      .   S
    H784   C771      1.08101      .   S
    H475   C463      1.08226      .   S
    H2200  C2187     1.08140      .   S
    H663   C649      1.08331      .   S
    H472   C459      1.08147      .   S
    C583   C582      1.34037      .   S
    H1648  C1635     1.08118      .   S
    C1903  C1902     1.34325      .   S
    H402   C390      1.08020      .   S
    H2104  C2091     1.08109      .   S
    H1072  C1059     1.08132      .   S
    C2095  C2094     1.34049      .   S
    C775   C774      1.34228      .   S
    C2191  C2190     1.34049      .   S
    H856   C843      1.08096      .   S
    C1063  C1062     1.34192      .   S
    C463   C462      1.34173      .   S
    C1639  C1638     1.34332      .   S
    H1912  C1899     1.08104      .   S
    C847   C846      1.34223      .   S
    H1723  C1711     1.08229      .   S
    H1720  C1707     1.08073      .   S
    H399   C385      1.08364      .   S
    C2023  C2022     1.34277      .   S
    C2023  H2035     1.08182      .   S
    C2022  C2018     1.48527      .   S
    C1134  C1135     1.34187      .   S
    C1134  C1130     1.48377      .   S
    C1711  C1710     1.34215      .   S
    C1909  H1919     1.08060      .   S
    C1135  H1147     1.08135      .   S
    C654   C655      1.34443      .   S
    C654   C650      1.48956      .   S
    C391   C390      1.34289      .   S
    C391   H403      1.08121      .   S
    C655   H667      1.08196      .   S
    C1830  C1831     1.34189      .   S
    C1830  C1826     1.48626      .   S
    C390   C386      1.48670      .   S
    C2017  C2018     1.40330      .   S
    C2017  C2016     1.39743      .   S
    C1831  H1843     1.08239      .   S
    C1129  C1130     1.40228      .   S
    C1129  C1128     1.39602      .   S
    C2118  H2130     1.08100      .   S
    C2118  C2114     1.48550      .   S
    C2094  H2106     1.08135      .   S
    C2094  C2090     1.48342      .   S
    C2115  C2114     1.40984      .   S
    C2115  C2116     1.40161      .   S
    C582   H594      1.08104      .   S
    C582   C578      1.48500      .   S
    C1825  C1826     1.40030      .   S
    C1825  C1824     1.39591      .   S
    C649   C650      1.40355      .   S
    C649   C648      1.39786      .   S
    C462   H474      1.08102      .   S
    C462   C458      1.48494      .   S
    C1062  H1074     1.08071      .   S
    C1062  C1058     1.48569      .   S
    C579   C578      1.40939      .   S
    C579   C580      1.40124      .   S
    C774   H786      1.08102      .   S
    C774   C770      1.48603      .   S
    C771   C770      1.40920      .   S
    C771   C772      1.40011      .   S
    C2190  H2202     1.08174      .   S
    C2190  C2186     1.48185      .   S
    C2091  C2090     1.40953      .   S
    C2091  C2092     1.40099      .   S
    C459   C458      1.40924      .   S
    C459   C460      1.39976      .   S
    C2187  C2186     1.40763      .   S
    C2187  C2188     1.39762      .   S
    C1059  C1058     1.40806      .   S
    C1059  C1060     1.39923      .   S
    H1142  C1128     1.08042      .   S
    H2030  C2016     1.08105      .   S
    H2129  C2116     1.08150      .   S
    C846   H858      1.08061      .   S
    C846   C842      1.48673      .   S
    H785   C772      1.08062      .   S
    H1838  C1824     1.07958      .   S
    C843   C842      1.40813      .   S
    C843   C844      1.40065      .   S
    C1635  C1636     1.39930      .   S
    C1635  C1634     1.40803      .   S
    C385   C386      1.40199      .   S
    C385   C384      1.39351      .   S
    H593   C580      1.08140      .   S
    H2201  C2188     1.08098      .   S
    C1638  H1650     1.08155      .   S
    C1638  C1634     1.48732      .   S
    C2018  C2019     1.40738      .   S
    H1913  C1900     1.08133      .   S
    H662   C648      1.08086      .   S
    H1649  C1636     1.08144      .   S
    H473   C460      1.08120      .   S
    H1073  C1060     1.08117      .   S
    C1130  C1131     1.40762      .   S
    H2105  C2092     1.08177      .   S
    H857   C844      1.08111      .   S
    C1899  C1900     1.40099      .   S
    C1899  C1898     1.40882      .   S
    C1707  C1708     1.39687      .   S
    C1707  C1706     1.40614      .   S
    H1721  C1708     1.08110      .   S
    C650   C651      1.40888      .   S
    C1710  H1722     1.08139      .   S
    C1710  C1706     1.48557      .   S
    C2114  C2113     1.40128      .   S
    C1826  C1827     1.40736      .   S
    C1128  C1133     1.40649      .   S
    C2016  C2021     1.40637      .   S
    C386   C387      1.41019      .   S
    H398   C384      1.08062      .   S
    C1902  C1898     1.48653      .   S
    C1902  H1914     1.08124      .   S
    C2090  C2089     1.40074      .   S
    C578   C577      1.40080      .   S
    C2116  C2117     1.40649      .   S
    C458   C457      1.40130      .   S
    C1058  C1057     1.40201      .   S
    C648   C653      1.40701      .   S
    C770   C769      1.40162      .   S
    C1824  C1829     1.41141      .   S
    C580   C581      1.40566      .   S
    C772   C773      1.40709      .   S
    C2186  C2185     1.40137      .   S
    C2092  C2093     1.40570      .   S
    C2188  C2189     1.40635      .   S
    C460   C461      1.40529      .   S
    C1060  C1061     1.40639      .   S
    C842   C841      1.40207      .   S
    C844   C845      1.40669      .   S
    C1636  C1637     1.40720      .   S
    C384   C389      1.40670      .   S
    C1634  C1633     1.40301      .   S
    C1900  C1901     1.40657      .   S
    C1708  C1709     1.41032      .   S
    C1706  C1705     1.40206      .   S
    C1898  C1897     1.40170      .   S
    C2019  H2032     1.08078      .   S
    C2019  C2020     1.39801      .   S
    C1131  H1144     1.08074      .   S
    C1131  C1132     1.39834      .   S
    C387   H400      1.08058      .   S
    C387   C388      1.40284      .   S
    C651   H664      1.08107      .   S
    C651   C652      1.40227      .   S
    C2021  C2020     1.40677      .   S
    C1133  C1132     1.40650      .   S
    C2113  H2127     1.08366      .   S
    C2113  C2112     1.39452      .   S
    C2089  H2103     1.08355      .   S
    C2089  C2088     1.39334      .   S
    C1827  H1840     1.08103      .   S
    C1827  C1828     1.40163      .   S
    C577   H591      1.08358      .   S
    C577   C576      1.39502      .   S
    C653   C652      1.40759      .   S
    C457   H471      1.08388      .   S
    C457   C456      1.39658      .   S
    C1057  H1071     1.08357      .   S
    C1057  C1056     1.39644      .   S
    C2117  C2112     1.40691      .   S
    C769   H783      1.08333      .   S
    C769   C768      1.39628      .   S
    C2093  C2088     1.40721      .   S
    C581   C576      1.40702      .   S
    C389   C388      1.40628      .   S
    C773   C768      1.40731      .   S
    C1829  C1828     1.41088      .   S
    C1061  C1056     1.40723      .   S
    C461   C456      1.40665      .   S
    C2185  H2199     1.08383      .   S
    C2185  C2184     1.39520      .   S
    C2189  C2184     1.40744      .   S
    C841   H855      1.08387      .   S
    C841   C840      1.39737      .   S
    C845   C840      1.40717      .   S
    C2020  H2033     1.08119      .   S
    C1637  C1632     1.40779      .   S
    C1132  H1145     1.08125      .   S
    C1633  H1647     1.08297      .   S
    C1633  C1632     1.39841      .   S
    C1901  C1896     1.40745      .   S
    C388   H401      1.08166      .   S
    C1709  C1704     1.41086      .   S
    C652   H665      1.08112      .   S
    C1705  H1719     1.08334      .   S
    C1705  C1704     1.39856      .   S
    C2112  H2126     1.08045      .   S
    C2088  H2102     1.08039      .   S
    C576   H590      1.08053      .   S
    C1897  C1896     1.39660      .   S
    C1897  H1911     1.08373      .   S
    C1056  H1070     1.08048      .   S
    C1828  H1841     1.08104      .   S
    C456   H470      1.08138      .   S
    C768   H782      1.08020      .   S
    C2184  H2198     1.08040      .   S
    C840   H854      1.08068      .   S
    C1632  H1646     1.08089      .   S
    C1704  H1718     1.08067      .   S
    C1896  H1910     1.08071      .   S
    H21    C10       1.08287      .   S
    H117   C106      1.08340      .   S
    H1461  C1450     1.08356      .   S
    H1365  C1354     1.08272      .   S
    H93    C82       1.08325      .   S
    H1437  C1426     1.08271      .   S
    H190   C180      1.08293      .   S
    H1534  C1524     1.08329      .   S
    C11    C10       1.40513      .   S
    C11    C12       1.40372      .   S
    C10    C9        1.39537      .   S
    C1451  C1450     1.40527      .   S
    C1451  C1452     1.40626      .   S
    C107   C106      1.40594      .   S
    C107   C108      1.40391      .   S
    C106   C105      1.39486      .   S
    C1355  C1354     1.40509      .   S
    C1355  C1356     1.40476      .   S
    C1450  C1449     1.39635      .   S
    C1354  C1353     1.39558      .   S
    C83    C82       1.40476      .   S
    C83    C84       1.40250      .   S
    C82    C81       1.39297      .   S
    C1427  C1426     1.40538      .   S
    C1427  C1428     1.40418      .   S
    C1426  C1425     1.39532      .   S
    C1523  C1524     1.40446      .   S
    C1523  C1522     1.40524      .   S
    C179   C180      1.40269      .   S
    C179   C178      1.40462      .   S
    C180   C181      1.39782      .   S
    C1524  C1525     1.39906      .   S
    H1462  C1452     1.08316      .   S
    C12    H22       1.08329      .   S
    C12    C13       1.39993      .   S
    C1452  C1453     1.40129      .   S
    H20    C9        1.08312      .   S
    C9     C8        1.40301      .   S
    C108   H118      1.08268      .   S
    C108   C109      1.40108      .   S
    C1356  H1366     1.08263      .   S
    C1356  C1357     1.40051      .   S
    H116   C105      1.08312      .   S
    C105   C104      1.40259      .   S
    C1449  H1460     1.08352      .   S
    C1449  C1448     1.40347      .   S
    C1353  H1364     1.08367      .   S
    C1353  C1352     1.40254      .   S
    C84    H94       1.08322      .   S
    C84    C85       1.39769      .   S
    H92    C81       1.08338      .   S
    C81    C80       1.40218      .   S
    H1533  C1522     1.08339      .   S
    H189   C178      1.08282      .   S
    C1428  H1438     1.08334      .   S
    C1428  C1429     1.39970      .   S
    C1522  C1521     1.39789      .   S
    H1436  C1425     1.08392      .   S
    C1425  C1424     1.40208      .   S
    C178   C177      1.39745      .   S
    H191   C181      1.08043      .   S
    C181   C176      1.41021      .   S
    C1525  H1535     1.08088      .   S
    C1525  C1520     1.40951      .   S
    C13    C8        1.41003      .   S
    C13    H23       1.08041      .   S
    C8     C7        1.48374      .   S
    C1453  C1448     1.40913      .   S
    C1453  H1463     1.08104      .   S
    C1357  C1352     1.40907      .   S
    C1357  H1367     1.08095      .   S
    C1448  C1447     1.48682      .   S
    C109   C104      1.41060      .   S
    C109   H119      1.08143      .   S
    C1352  C1351     1.48424      .   S
    C104   C103      1.48619      .   S
    C85    C80       1.40968      .   S
    C85    H95       1.08073      .   S
    C80    C79       1.48068      .   S
    C1429  C1424     1.41011      .   S
    C1429  H1439     1.08106      .   S
    C177   C176      1.40344      .   S
    C177   H188      1.08367      .   S
    C1521  C1520     1.40472      .   S
    C1521  H1532     1.08344      .   S
    C1424  C1423     1.48389      .   S
    C176   C175      1.48645      .   S
    C1520  C1519     1.48812      .   S
    C7     H19       1.08162      .   S
    C7     C6        1.34109      .   S
    C1447  H1459     1.08196      .   S
    C1447  C1446     1.34309      .   S
    C1351  H1363     1.08216      .   S
    C1351  C1350     1.34210      .   S
    C103   H115      1.08222      .   S
    C103   C102      1.34071      .   S
    C79    H91       1.08151      .   S
    C79    C78       1.33960      .   S
    H186   C174      1.08133      .   S
    C1423  H1435     1.08245      .   S
    C1423  C1422     1.34060      .   S
    H1530  C1518     1.08121      .   S
    C175   C174      1.34038      .   S
    C175   H187      1.08185      .   S
    C1519  C1518     1.34251      .   S
    C1519  H1531     1.08173      .   S
    C174   C170      1.48336      .   S
    H18    C6        1.08137      .   S
    H1458  C1446     1.08167      .   S
    C1518  C1514     1.48674      .   S
    C6     C2        1.48481      .   S
    H1362  C1350     1.08131      .   S
    H114   C102      1.08194      .   S
    C1446  C1442     1.48689      .   S
    H90    C78       1.08122      .   S
    C1350  C1346     1.48521      .   S
    C102   C98       1.48510      .   S
    C78    C74       1.48017      .   S
    H1434  C1422     1.08232      .   S
    C1422  C1418     1.48375      .   S
    C170   C169      1.39898      .   S
    C170   C171      1.40829      .   S
    H183   C169      1.08379      .   S
    C2     C3        1.40806      .   S
    C2     C1        1.40243      .   S
    C1514  C1513     1.40209      .   S
    C1514  C1515     1.40971      .   S
    H16    C3        1.08138      .   S
    H1527  C1513     1.08396      .   S
    C1442  C1443     1.40716      .   S
    C1442  C1441     1.40294      .   S
    H184   C171      1.08113      .   S
    C1346  C1347     1.40682      .   S
    C1346  C1345     1.40231      .   S
    C74    C75       1.40757      .   S
    C74    C73       1.40020      .   S
    C98    C99       1.40811      .   S
    C98    C97       1.39901      .   S
    H1360  C1347     1.08115      .   S
    H112   C99       1.08096      .   S
    H88    C75       1.08151      .   S
    H1528  C1515     1.08028      .   S
    H1456  C1443     1.08165      .   S
    H15    C1        1.08386      .   S
    H1455  C1441     1.08355      .   S
    C1418  C1419     1.40746      .   S
    C1418  C1417     1.39970      .   S
    H1359  C1345     1.08328      .   S
    H1432  C1419     1.08121      .   S
    C169   C168      1.39199      .   S
    H87    C73       1.08352      .   S
    H111   C97       1.08339      .   S
    C3     C4        1.39870      .   S
    C171   C172      1.40298      .   S
    H1431  C1417     1.08397      .   S
    C1513  C1512     1.39537      .   S
    C1     C0        1.39618      .   S
    C1347  C1348     1.39687      .   S
    C1443  C1444     1.39825      .   S
    C1515  C1516     1.40180      .   S
    C75    C76       1.39715      .   S
    C99    C100      1.40199      .   S
    C1441  C1440     1.39942      .   S
    C1345  C1344     1.39860      .   S
    C73    C72       1.39462      .   S
    C97    C96       1.39411      .   S
    C1419  C1420     1.40024      .   S
    C1417  C1416     1.39486      .   S
    C168   H182      1.07944      .   S
    C168   C173      1.41137      .   S
    C4     H17       1.08173      .   S
    C4     C5        1.40512      .   S
    C172   H185      1.08144      .   S
    C172   C173      1.40985      .   S
    C1512  H1526     1.08060      .   S
    C1512  C1517     1.40718      .   S
    C0     H14       1.08221      .   S
    C0     C5        1.40521      .   S
    C1348  H1361     1.08097      .   S
    C1348  C1349     1.40690      .   S
    C76    H89       1.08111      .   S
    C76    C77       1.40553      .   S
    C1444  H1457     1.08094      .   S
    C1444  C1445     1.40749      .   S
    C100   H113      1.08091      .   S
    C100   C101      1.40998      .   S
    C1440  H1454     1.08071      .   S
    C1440  C1445     1.40780      .   S
    C1516  H1529     1.08124      .   S
    C1516  C1517     1.40669      .   S
    C1344  H1358     1.08064      .   S
    C1344  C1349     1.40743      .   S
    C72    H86       1.08063      .   S
    C72    C77       1.40727      .   S
    C96    H110      1.07978      .   S
    C96    C101      1.41170      .   S
    C1420  H1433     1.08117      .   S
    C1420  C1421     1.41041      .   S
    C1416  H1430     1.07936      .   S
    C1416  C1421     1.41150      .   S
