# CIF file generated by openbabel 2.4.90, see http://openbabel.sf.net
data_I
_chemical_name_common ''
_cell_length_a 71.5169
_cell_length_b 71.4927
_cell_length_c 71.6087
_cell_angle_alpha 89.8315
_cell_angle_beta 90.1248
_cell_angle_gamma 89.8689
_space_group_name_H-M_alt 'P 1'
_space_group_name_Hall 'P 1'
loop_
    _symmetry_equiv_pos_as_xyz
    x,y,z
loop_
    _atom_site_label
    _atom_site_type_symbol
    _atom_site_fract_x
    _atom_site_fract_y
    _atom_site_fract_z
    _atom_site_occupancy
    Mc0     Mc   0.21067   0.09917   0.10088   1.000
    Mc1     Mc   0.09926   0.21158   0.09981   1.000
    Mc2     Mc   0.78765   0.10075   0.09791   1.000
    Mc3     Mc   0.90052   0.21247   0.10134   1.000
    Mc4     Mc   0.28898   0.60060   0.10025   1.000
    Mc5     Mc   0.60071   0.71362   0.10146   1.000
    Mc6     Mc   0.89984   0.78623   0.09992   1.000
    Mc7     Mc   0.40249   0.71313   0.10421   1.000
    Mc8     Mc   0.39865   0.28943   0.09934   1.000
    Mc9     Mc   0.59812   0.28674   0.10292   1.000
    Mc10    Mc   0.71472   0.59883   0.10011   1.000
    Mc11    Mc   0.28765   0.40029   0.10093   1.000
    Mc12    Mc   0.78705   0.90097   0.09928   1.000
    Mc13    Mc   0.60033   0.40015   0.21441   1.000
    Mc14    Mc   0.90143   0.10275   0.21144   1.000
    Mc15    Mc   0.39836   0.40128   0.21225   1.000
    Mc16    Mc   0.40041   0.60148   0.21337   1.000
    Mc17    Mc   0.89829   0.90105   0.21216   1.000
    Mc18    Mc   0.09637   0.89599   0.21192   1.000
    Mc19    Mc   0.09794   0.10143   0.21033   1.000
    Mc20    Mc   0.59983   0.60069   0.21254   1.000
    Mc21    Mc   0.21176   0.89717   0.09822   1.000
    Mc22    Mc   0.10012   0.78606   0.10155   1.000
    Mc23    Mc   0.71391   0.39949   0.09978   1.000
    Mc24    Mc   0.59926   0.39838   0.78722   1.000
    Mc25    Mc   0.90187   0.10183   0.78510   1.000
    Mc26    Mc   0.09868   0.10152   0.78700   1.000
    Mc27    Mc   0.10150   0.89984   0.78711   1.000
    Mc28    Mc   0.39828   0.59708   0.78710   1.000
    Mc29    Mc   0.40153   0.39951   0.78877   1.000
    Mc30    Mc   0.89962   0.90001   0.78595   1.000
    Mc31    Mc   0.60106   0.60190   0.78751   1.000
    Mc32    Mc   0.89999   0.78664   0.89752   1.000
    Mc33    Mc   0.39977   0.29006   0.90047   1.000
    Mc34    Mc   0.09971   0.21216   0.89718   1.000
    Mc35    Mc   0.28931   0.59963   0.89970   1.000
    Mc36    Mc   0.71178   0.40056   0.89996   1.000
    Mc37    Mc   0.59865   0.71251   0.89839   1.000
    Mc38    Mc   0.21117   0.90027   0.90055   1.000
    Mc39    Mc   0.78748   0.10105   0.89879   1.000
    Mc40    Mc   0.89949   0.21296   0.89800   1.000
    Mc41    Mc   0.78765   0.89942   0.89918   1.000
    Mc42    Mc   0.40041   0.71305   0.90011   1.000
    Mc43    Mc   0.10093   0.78592   0.90060   1.000
    Mc44    Mc   0.28804   0.39859   0.90321   1.000
    Mc45    Mc   0.21248   0.10044   0.90060   1.000
    Mc46    Mc   0.59810   0.28693   0.90113   1.000
    Mc47    Mc   0.71387   0.59859   0.90110   1.000
    Mc48    Mc   0.89888   0.28834   0.59847   1.000
    Mc49    Mc   0.21394   0.40008   0.60158   1.000
    Mc50    Mc   0.28696   0.09718   0.60287   1.000
    Mc51    Mc   0.78683   0.39983   0.59988   1.000
    Mc52    Mc   0.21383   0.60184   0.59784   1.000
    Mc53    Mc   0.59952   0.21094   0.60015   1.000
    Mc54    Mc   0.90031   0.71096   0.60164   1.000
    Mc55    Mc   0.71181   0.89988   0.59923   1.000
    Mc56    Mc   0.39903   0.21215   0.59999   1.000
    Mc57    Mc   0.78848   0.59757   0.60179   1.000
    Mc58    Mc   0.40198   0.78746   0.60227   1.000
    Mc59    Mc   0.28846   0.89858   0.59869   1.000
    Mc60    Mc   0.71233   0.10135   0.59922   1.000
    Mc61    Mc   0.60163   0.78624   0.59700   1.000
    Mc62    Mc   0.10034   0.71148   0.60125   1.000
    Mc63    Mc   0.10341   0.28745   0.59818   1.000
    Mc64    Mc   0.39974   0.90012   0.71358   1.000
    Mc65    Mc   0.39835   0.90171   0.28717   1.000
    Mc66    Mc   0.28619   0.09884   0.39714   1.000
    Mc67    Mc   0.90072   0.39989   0.71207   1.000
    Mc68    Mc   0.89921   0.59808   0.71145   1.000
    Mc69    Mc   0.59884   0.89998   0.71359   1.000
    Mc70    Mc   0.39903   0.09996   0.71395   1.000
    Mc71    Mc   0.59901   0.10023   0.71389   1.000
    Mc72    Mc   0.10089   0.59924   0.71197   1.000
    Mc73    Mc   0.10232   0.40138   0.71268   1.000
    Mc74    Mc   0.89810   0.71338   0.40052   1.000
    Mc75    Mc   0.09881   0.60070   0.28738   1.000
    Mc76    Mc   0.90054   0.40082   0.28859   1.000
    Mc77    Mc   0.60042   0.78829   0.40137   1.000
    Mc78    Mc   0.59764   0.21178   0.39889   1.000
    Mc79    Mc   0.10240   0.71260   0.40229   1.000
    Mc80    Mc   0.40048   0.21192   0.39950   1.000
    Mc81    Mc   0.09994   0.28611   0.39999   1.000
    Mc82    Mc   0.60099   0.09951   0.28828   1.000
    Mc83    Mc   0.40104   0.78716   0.39982   1.000
    Mc84    Mc   0.89834   0.28807   0.40063   1.000
    Mc85    Mc   0.89962   0.59772   0.28830   1.000
    Mc86    Mc   0.10139   0.39997   0.28817   1.000
    Mc87    Mc   0.21165   0.60175   0.40070   1.000
    Mc88    Mc   0.60158   0.90246   0.28894   1.000
    Mc89    Mc   0.28740   0.90106   0.39705   1.000
    Mc90    Mc   0.71214   0.09942   0.39857   1.000
    Mc91    Mc   0.78705   0.39826   0.40071   1.000
    Mc92    Mc   0.39951   0.10113   0.28615   1.000
    Mc93    Mc   0.21367   0.39954   0.39877   1.000
    Mc94    Mc   0.78735   0.59982   0.39868   1.000
    Mc95    Mc   0.71150   0.90221   0.39943   1.000
