# CIF file generated by openbabel 2.4.90, see http://openbabel.sf.net
data_I
_chemical_name_common ''
_cell_length_a 11.6884
_cell_length_b 5.5643
_cell_length_c 22.8159
_cell_angle_alpha 90
_cell_angle_beta 100.691
_cell_angle_gamma 90
_space_group_name_H-M_alt 'P 1'
_space_group_name_Hall 'P 1'
loop_
    _symmetry_equiv_pos_as_xyz
    x,y,z
loop_
    _atom_site_label
    _atom_site_type_symbol
    _atom_site_fract_x
    _atom_site_fract_y
    _atom_site_fract_z
    _atom_site_occupancy
    S0      S    0.10145   0.96454   0.39330   1.000
    O1      O    0.08446   0.22059   0.38950   1.000
    S2      S    0.39855   0.46454   0.10670   1.000
    O3      O    0.41554   0.72059   0.11050   1.000
    S4      S    0.89855   0.03546   0.60670   1.000
    O5      O    0.91554   0.77941   0.61050   1.000
    S6      S    0.60145   0.53546   0.89330   1.000
    O7      O    0.58446   0.27941   0.88950   1.000
loop_
    _geom_bond_atom_site_label_1
    _geom_bond_atom_site_label_2
    _geom_bond_distance
    _geom_bond_site_symmetry_2
    _ccdc_geom_bond_type
    S2     O3        1.43890      .   S
    O1     S0        1.43890  1_545   S
    S4     O5        1.43890  1_545   S
    O7     S6        1.43890      .   S
