# CIF file generated by openbabel 2.4.90, see http://openbabel.sf.net
data_I
_chemical_name_common ''
_cell_length_a 71.5169
_cell_length_b 71.4927
_cell_length_c 71.6087
_cell_angle_alpha 89.8315
_cell_angle_beta 90.1248
_cell_angle_gamma 89.8689
_space_group_name_H-M_alt 'P 1'
_space_group_name_Hall 'P 1'
loop_
    _symmetry_equiv_pos_as_xyz
    x,y,z
loop_
    _atom_site_label
    _atom_site_type_symbol
    _atom_site_fract_x
    _atom_site_fract_y
    _atom_site_fract_z
    _atom_site_occupancy
    C0      C    0.06292   0.03956   0.11624   1.000
    C1      C    0.07079   0.04731   0.13242   1.000
    H2      H    0.08304   0.04088   0.13866   1.000
    C3      C    0.93352   0.95967   0.11658   1.000
    C4      C    0.92587   0.95173   0.13290   1.000
    H5      H    0.91333   0.95764   0.13897   1.000
    C6      C    0.04035   0.11732   0.06298   1.000
    C7      C    0.04855   0.13355   0.07045   1.000
    H8      H    0.04272   0.13989   0.08287   1.000
    C9      C    0.95720   0.88155   0.06377   1.000
    C10     C    0.94908   0.86522   0.07113   1.000
    H11     H    0.95474   0.85897   0.08374   1.000
    C12     C    0.11773   0.06238   0.03978   1.000
    C13     C    0.13447   0.06923   0.04751   1.000
    H14     H    0.14112   0.08142   0.04146   1.000
    C15     C    0.88152   0.93627   0.03822   1.000
    C16     C    0.86533   0.92843   0.04597   1.000
    H17     H    0.85924   0.91607   0.03972   1.000
    C18     C    0.95831   0.06543   0.11614   1.000
    C19     C    0.95043   0.07296   0.13248   1.000
    H20     H    0.95624   0.08558   0.13847   1.000
    C21     C    0.03837   0.93398   0.11729   1.000
    C22     C    0.04633   0.92635   0.13361   1.000
    H23     H    0.04057   0.91369   0.13962   1.000
    C24     C    0.11610   0.95785   0.06440   1.000
    C25     C    0.13315   0.95094   0.07138   1.000
    H26     H    0.13953   0.95746   0.08345   1.000
    C27     C    0.88198   0.04151   0.06198   1.000
    C28     C    0.86568   0.04982   0.06923   1.000
    H29     H    0.85939   0.04425   0.08181   1.000
    C30     C    0.93510   0.11865   0.03781   1.000
    C31     C    0.92714   0.13482   0.04559   1.000
    H32     H    0.91485   0.14099   0.03917   1.000
    C33     C    0.06251   0.87939   0.04120   1.000
    C34     C    0.06958   0.86275   0.04906   1.000
    H35     H    0.08188   0.85623   0.04311   1.000
    C36     C    0.93428   0.04109   0.11610   1.000
    C37     C    0.92669   0.04879   0.13244   1.000
    H38     H    0.91447   0.04244   0.13869   1.000
    C39     C    0.06241   0.95825   0.11717   1.000
    C40     C    0.07010   0.95044   0.13348   1.000
    H41     H    0.08243   0.95666   0.13968   1.000
    C42     C    0.03793   0.87987   0.06487   1.000
    C43     C    0.04512   0.86320   0.07245   1.000
    H44     H    0.03881   0.85728   0.08487   1.000
    C45     C    0.95884   0.11867   0.06249   1.000
    C46     C    0.95062   0.13485   0.07007   1.000
    H47     H    0.95618   0.14074   0.08285   1.000
    C48     C    0.88268   0.06538   0.03738   1.000
    C49     C    0.86643   0.07339   0.04486   1.000
    H50     H    0.86045   0.08576   0.03840   1.000
    C51     C    0.11604   0.93311   0.04091   1.000
    C52     C    0.13304   0.92634   0.04817   1.000
    H53     H    0.13955   0.91413   0.04203   1.000
    C54     C    0.95758   0.93527   0.11646   1.000
    C55     C    0.94980   0.92767   0.13274   1.000
    H56     H    0.95598   0.91528   0.13896   1.000
    C57     C    0.03923   0.06432   0.11618   1.000
    C58     C    0.04739   0.07186   0.13238   1.000
    H59     H    0.04186   0.08465   0.13830   1.000
    C60     C    0.88121   0.96022   0.06257   1.000
    C61     C    0.86498   0.95208   0.07012   1.000
    H62     H    0.85889   0.95770   0.08276   1.000
    C63     C    0.11701   0.03802   0.06381   1.000
    C64     C    0.13384   0.04493   0.07116   1.000
    H65     H    0.13981   0.03859   0.08359   1.000
    C66     C    0.93337   0.88212   0.03922   1.000
    C67     C    0.92544   0.86586   0.04682   1.000
    H68     H    0.91312   0.85984   0.04042   1.000
    C69     C    0.06480   0.11637   0.03910   1.000
    C70     C    0.07270   0.13257   0.04678   1.000
    H71     H    0.08522   0.13845   0.04064   1.000
    C72     C    0.04704   0.04806   0.10830   1.000
    H73     H    0.04111   0.04237   0.09560   1.000
    C74     C    0.06330   0.06354   0.14046   1.000
    C75     C    0.94947   0.95137   0.10858   1.000
    H76     H    0.95524   0.95710   0.09581   1.000
    C77     C    0.93385   0.93559   0.14093   1.000
    C78     C    0.04853   0.10893   0.04720   1.000
    H79     H    0.04257   0.09622   0.04157   1.000
    C80     C    0.06483   0.14115   0.06253   1.000
    C81     C    0.94934   0.88976   0.04770   1.000
    H82     H    0.95531   0.90251   0.04211   1.000
    C83     C    0.93311   0.85738   0.06281   1.000
    C84     C    0.10921   0.04668   0.04797   1.000
    H85     H    0.09610   0.04156   0.04239   1.000
    C86     C    0.14261   0.06056   0.06319   1.000
    C87     C    0.88929   0.95226   0.04652   1.000
    H88     H    0.90200   0.95816   0.04083   1.000
    C89     C    0.85712   0.93603   0.06202   1.000
    C90     C    0.95020   0.04941   0.10817   1.000
    H91     H    0.95593   0.04374   0.09539   1.000
    C92     C    0.93453   0.06482   0.14065   1.000
    C93     C    0.04643   0.95003   0.10928   1.000
    H94     H    0.04064   0.95577   0.09650   1.000
    C95     C    0.06232   0.93439   0.14167   1.000
    C96     C    0.10777   0.94896   0.04903   1.000
    H97     H    0.09450   0.95406   0.04374   1.000
    C98     C    0.14168   0.93518   0.06339   1.000
    C99     C    0.89029   0.04934   0.04595   1.000
    H100    H    0.90305   0.04330   0.04047   1.000
    C101    C    0.85796   0.06588   0.06085   1.000
    C102    C    0.95105   0.11080   0.04627   1.000
    H103    H    0.95705   0.09813   0.04055   1.000
    C104    C    0.93467   0.14294   0.06180   1.000
    C105    C    0.04659   0.88771   0.04912   1.000
    H106    H    0.04127   0.90071   0.04339   1.000
    C107    C    0.06096   0.85455   0.06470   1.000
    C108    C    0.06445   0.95754   0.88184   1.000
    C109    C    0.07143   0.95023   0.86502   1.000
    H110    H    0.08352   0.95657   0.85851   1.000
    C111    C    0.93724   0.04025   0.87944   1.000
    C112    C    0.93016   0.04749   0.86260   1.000
    H113    H    0.91792   0.04121   0.85630   1.000
    C114    C    0.96124   0.11835   0.93319   1.000
    C115    C    0.95417   0.13522   0.92595   1.000
    H116    H    0.96053   0.14138   0.91368   1.000
    C117    C    0.03916   0.87962   0.93607   1.000
    C118    C    0.04626   0.86272   0.92909   1.000
    H119    H    0.04015   0.85661   0.91667   1.000
    C120    C    0.11607   0.93349   0.96116   1.000
    C121    C    0.13317   0.92659   0.95447   1.000
    H122    H    0.13938   0.91428   0.96083   1.000
    C123    C    0.88303   0.06483   0.95651   1.000
    C124    C    0.86603   0.07159   0.94919   1.000
    H125    H    0.85936   0.08364   0.95547   1.000
    C126    C    0.04132   0.06319   0.88088   1.000
    C127    C    0.04889   0.07011   0.86417   1.000
    H128    H    0.04277   0.08237   0.85763   1.000
    C129    C    0.96006   0.93421   0.88128   1.000
    C130    C    0.95237   0.92641   0.86505   1.000
    H131    H    0.95841   0.91380   0.85924   1.000
    C132    C    0.11821   0.03806   0.93504   1.000
    C133    C    0.13504   0.04521   0.92789   1.000
    H134    H    0.14120   0.03896   0.91558   1.000
    C135    C    0.88314   0.96017   0.93285   1.000
    C136    C    0.86675   0.95274   0.92507   1.000
    H137    H    0.86077   0.95907   0.91265   1.000
    C138    C    0.06586   0.11657   0.95826   1.000
    C139    C    0.07370   0.13290   0.95069   1.000
    H140    H    0.08597   0.13897   0.95715   1.000
    C141    C    0.93465   0.88127   0.95879   1.000
    C142    C    0.92746   0.86442   0.95177   1.000
    H143    H    0.91502   0.85841   0.95794   1.000
    C144    C    0.93638   0.95891   0.88018   1.000
    C145    C    0.92885   0.95084   0.86392   1.000
    H146    H    0.91646   0.95682   0.85752   1.000
    C147    C    0.06502   0.03846   0.88119   1.000
    C148    C    0.07240   0.04563   0.86446   1.000
    H149    H    0.08473   0.03926   0.85842   1.000
    C150    C    0.95888   0.88068   0.93477   1.000
    C151    C    0.95140   0.86389   0.92786   1.000
    H152    H    0.95772   0.85725   0.91584   1.000
    C153    C    0.04201   0.11710   0.93371   1.000
    C154    C    0.05011   0.13344   0.92634   1.000
    H155    H    0.04445   0.13963   0.91370   1.000
    C156    C    0.88229   0.93604   0.95711   1.000
    C157    C    0.86589   0.92879   0.94905   1.000
    H158    H    0.85953   0.91634   0.95487   1.000
    C159    C    0.11837   0.06241   0.95897   1.000
    C160    C    0.13514   0.06943   0.95151   1.000
    H161    H    0.14161   0.08163   0.95770   1.000
    C162    C    0.04025   0.93343   0.88198   1.000
    C163    C    0.04736   0.92641   0.86512   1.000
    H164    H    0.04113   0.91410   0.85892   1.000
    C165    C    0.96100   0.06479   0.87967   1.000
    C166    C    0.95362   0.07192   0.86285   1.000
    H167    H    0.95979   0.08421   0.85651   1.000
    C168    C    0.88335   0.04048   0.93257   1.000
    C169    C    0.86633   0.04740   0.92554   1.000
    H170    H    0.86014   0.04105   0.91329   1.000
    C171    C    0.11652   0.95763   0.93687   1.000
    C172    C    0.13359   0.95044   0.93039   1.000
    H173    H    0.14035   0.95680   0.91844   1.000
    C174    C    0.06317   0.87922   0.96042   1.000
    C175    C    0.07022   0.86239   0.95310   1.000
    H176    H    0.08233   0.85582   0.95945   1.000
    C177    C    0.93665   0.11851   0.95688   1.000
    C178    C    0.92970   0.13534   0.94933   1.000
    H179    H    0.91744   0.14184   0.95539   1.000
    C180    C    0.04876   0.94912   0.89011   1.000
    H181    H    0.04351   0.95445   0.90324   1.000
    C182    C    0.06295   0.93468   0.85656   1.000
    C183    C    0.95279   0.04886   0.88774   1.000
    H184    H    0.95815   0.04349   0.90086   1.000
    C185    C    0.93820   0.06332   0.85421   1.000
    C186    C    0.95252   0.11024   0.94880   1.000
    H187    H    0.95774   0.09709   0.95429   1.000
    C188    C    0.93838   0.14378   0.93387   1.000
    C189    C    0.04754   0.88762   0.95188   1.000
    H190    H    0.04228   0.90079   0.95718   1.000
    C191    C    0.06180   0.85405   0.93746   1.000
    C192    C    0.10792   0.94915   0.95238   1.000
    H193    H    0.09457   0.95437   0.95725   1.000
    C194    C    0.14195   0.93490   0.93906   1.000
    C195    C    0.89148   0.04917   0.94817   1.000
    H196    H    0.90474   0.04407   0.95350   1.000
    C197    C    0.85757   0.06295   0.93371   1.000
    C198    C    0.04936   0.04724   0.88917   1.000
    H199    H    0.04379   0.04202   0.90223   1.000
    C200    C    0.06446   0.06150   0.85590   1.000
    C201    C    0.95209   0.95056   0.88865   1.000
    H202    H    0.95775   0.95643   0.90138   1.000
    C203    C    0.93667   0.93446   0.85640   1.000
    C204    C    0.11012   0.04663   0.95071   1.000
    H205    H    0.09702   0.04136   0.95613   1.000
    C206    C    0.14356   0.06093   0.93596   1.000
    C207    C    0.89073   0.95184   0.94897   1.000
    H208    H    0.90357   0.95729   0.95484   1.000
    C209    C    0.85814   0.93697   0.93293   1.000
    C210    C    0.04991   0.10888   0.94977   1.000
    H211    H    0.04399   0.09610   0.95533   1.000
    C212    C    0.06605   0.14134   0.93466   1.000
    C213    C    0.95049   0.88914   0.95034   1.000
    H214    H    0.95595   0.90226   0.95553   1.000
    C215    C    0.93569   0.85566   0.93628   1.000
    C216    C    0.96057   0.43588   0.38359   1.000
    C217    C    0.95293   0.42814   0.36732   1.000
    H218    H    0.95940   0.41595   0.36111   1.000
    C219    C    0.04007   0.56628   0.38367   1.000
    C220    C    0.04733   0.57414   0.36726   1.000
    H221    H    0.04082   0.58648   0.36128   1.000
    C222    C    0.88125   0.46017   0.43574   1.000
    C223    C    0.86447   0.45306   0.42847   1.000
    H224    H    0.85831   0.45942   0.41615   1.000
    C225    C    0.11810   0.54039   0.43628   1.000
    C226    C    0.13512   0.54730   0.42945   1.000
    H227    H    0.14136   0.54112   0.41714   1.000
    C228    C    0.93563   0.38247   0.45881   1.000
    C229    C    0.92815   0.36624   0.45064   1.000
    H230    H    0.91534   0.36029   0.45607   1.000
    C231    C    0.06487   0.61852   0.46092   1.000
    C232    C    0.07190   0.63531   0.45351   1.000
    H233    H    0.08424   0.64161   0.45961   1.000
    C234    C    0.93635   0.54029   0.38330   1.000
    C235    C    0.92979   0.54730   0.36614   1.000
    H236    H    0.91793   0.54078   0.35936   1.000
    C237    C    0.06437   0.46114   0.38160   1.000
    C238    C    0.07144   0.45416   0.36473   1.000
    H239    H    0.08350   0.46074   0.35837   1.000
    C240    C    0.04241   0.38219   0.43546   1.000
    C241    C    0.05038   0.36587   0.42790   1.000
    H242    H    0.04440   0.35966   0.41547   1.000
    C243    C    0.95937   0.61920   0.43701   1.000
    C244    C    0.95223   0.63609   0.42988   1.000
    H245    H    0.95857   0.64236   0.41766   1.000
    C246    C    0.88236   0.56511   0.45999   1.000
    C247    C    0.86619   0.57300   0.45210   1.000
    H248    H    0.86005   0.58536   0.45832   1.000
    C249    C    0.11959   0.43600   0.45810   1.000
    C250    C    0.13577   0.42854   0.44977   1.000
    H251    H    0.14211   0.41597   0.45545   1.000
    C252    C    0.96026   0.56468   0.38378   1.000
    C253    C    0.95355   0.57140   0.36658   1.000
    H254    H    0.95977   0.58372   0.36033   1.000
    C255    C    0.04114   0.43608   0.38197   1.000
    C256    C    0.04858   0.42917   0.36515   1.000
    H257    H    0.04270   0.41673   0.35887   1.000
    C258    C    0.11851   0.46027   0.43398   1.000
    C259    C    0.13469   0.45267   0.42593   1.000
    H260    H    0.14051   0.45905   0.41350   1.000
    C261    C    0.88220   0.54112   0.43566   1.000
    C262    C    0.86598   0.54928   0.42798   1.000
    H263    H    0.85993   0.54359   0.41533   1.000
    C264    C    0.93483   0.61911   0.46070   1.000
    C265    C    0.92775   0.63595   0.45326   1.000
    H266    H    0.91545   0.64233   0.45935   1.000
    C267    C    0.06693   0.38267   0.45929   1.000
    C268    C    0.07470   0.36643   0.45152   1.000
    H269    H    0.08724   0.36041   0.45758   1.000
    C270    C    0.06439   0.54225   0.38272   1.000
    C271    C    0.07150   0.55039   0.36628   1.000
    H272    H    0.08394   0.54466   0.35983   1.000
    C273    C    0.93580   0.45959   0.38343   1.000
    C274    C    0.92838   0.45154   0.36710   1.000
    H275    H    0.91567   0.45713   0.36098   1.000
    C276    C    0.04008   0.61890   0.43734   1.000
    C277    C    0.04728   0.63571   0.43019   1.000
    H278    H    0.04090   0.64204   0.41797   1.000
    C279    C    0.96060   0.38242   0.43544   1.000
    C280    C    0.95286   0.36622   0.42754   1.000
    H281    H    0.95937   0.35999   0.41540   1.000
    C282    C    0.11838   0.56445   0.46049   1.000
    C283    C    0.13533   0.57126   0.45333   1.000
    H284    H    0.14192   0.58331   0.45967   1.000
    C285    C    0.88120   0.43554   0.45951   1.000
    C286    C    0.86445   0.42855   0.45197   1.000
    H287    H    0.85805   0.41626   0.45808   1.000
    C288    C    0.95200   0.45169   0.39150   1.000
    H289    H    0.95761   0.45752   0.40428   1.000
    C290    C    0.93677   0.43568   0.35912   1.000
    C291    C    0.04858   0.55024   0.39122   1.000
    H292    H    0.04322   0.54431   0.40406   1.000
    C293    C    0.06312   0.56646   0.35857   1.000
    C294    C    0.88935   0.45147   0.45139   1.000
    H295    H    0.90243   0.45673   0.45689   1.000
    C296    C    0.85598   0.43723   0.43645   1.000
    C297    C    0.10996   0.54889   0.45196   1.000
    H298    H    0.09669   0.54379   0.45712   1.000
    C299    C    0.14375   0.56276   0.43781   1.000
    C300    C    0.95195   0.39036   0.45117   1.000
    H301    H    0.95761   0.40306   0.45712   1.000
    C302    C    0.93658   0.35814   0.43490   1.000
    C303    C    0.04886   0.61053   0.45283   1.000
    H304    H    0.04356   0.59740   0.45823   1.000
    C305    C    0.06321   0.64398   0.43813   1.000
    C306    C    0.95171   0.54898   0.39193   1.000
    H307    H    0.95662   0.54389   0.40534   1.000
    C308    C    0.93828   0.56286   0.35773   1.000
    C309    C    0.04906   0.45216   0.38997   1.000
    H310    H    0.04370   0.45734   0.40311   1.000
    C311    C    0.06372   0.43817   0.35643   1.000
    C312    C    0.05070   0.39035   0.45127   1.000
    H313    H    0.04487   0.40310   0.45698   1.000
    C314    C    0.06663   0.35802   0.43578   1.000
    C315    C    0.95073   0.61097   0.45254   1.000
    H316    H    0.95606   0.59782   0.45793   1.000
    C317    C    0.93642   0.64455   0.43786   1.000
    C318    C    0.89018   0.54907   0.45176   1.000
    H319    H    0.90287   0.54312   0.45757   1.000
    C320    C    0.85802   0.56534   0.43602   1.000
    C321    C    0.11117   0.45195   0.45015   1.000
    H322    H    0.09852   0.45758   0.45625   1.000
    C323    C    0.14332   0.43672   0.43356   1.000
    C324    C    0.04119   0.43494   0.61715   1.000
    C325    C    0.04812   0.42782   0.63413   1.000
    H326    H    0.04178   0.41553   0.64029   1.000
    C327    C    0.96063   0.56289   0.61771   1.000
    C328    C    0.95363   0.56984   0.63463   1.000
    H329    H    0.95993   0.58209   0.64089   1.000
    C330    C    0.88216   0.53923   0.56434   1.000
    C331    C    0.86504   0.54599   0.57114   1.000
    H332    H    0.85850   0.53934   0.58307   1.000
    C333    C    0.11999   0.45962   0.56428   1.000
    C334    C    0.13683   0.45220   0.57131   1.000
    H335    H    0.14309   0.45813   0.58373   1.000
    C336    C    0.06729   0.38279   0.53969   1.000
    C337    C    0.07487   0.36645   0.54775   1.000
    H338    H    0.08764   0.36049   0.54222   1.000
    C339    C    0.93596   0.61771   0.54086   1.000
    C340    C    0.92924   0.63460   0.54833   1.000
    H341    H    0.91696   0.64122   0.54235   1.000
    C342    C    0.93632   0.45821   0.61712   1.000
    C343    C    0.92907   0.45003   0.63347   1.000
    H344    H    0.91653   0.45571   0.63977   1.000
    C345    C    0.06539   0.53912   0.61814   1.000
    C346    C    0.07213   0.54640   0.63510   1.000
    H347    H    0.08438   0.54030   0.64165   1.000
    C348    C    0.96137   0.38157   0.56257   1.000
    C349    C    0.95433   0.36467   0.56968   1.000
    H350    H    0.96077   0.35831   0.58185   1.000
    C351    C    0.04051   0.61726   0.56470   1.000
    C352    C    0.04723   0.63425   0.57177   1.000
    H353    H    0.04074   0.64040   0.58396   1.000
    C354    C    0.88205   0.43440   0.54044   1.000
    C355    C    0.86581   0.42686   0.54862   1.000
    H356    H    0.85956   0.41433   0.54288   1.000
    C357    C    0.11903   0.56425   0.54083   1.000
    C358    C    0.13592   0.57118   0.54805   1.000
    H359    H    0.14236   0.58332   0.54170   1.000
    C360    C    0.04070   0.56282   0.61797   1.000
    C361    C    0.04748   0.56972   0.63500   1.000
    H362    H    0.04096   0.58186   0.64127   1.000
    C363    C    0.96073   0.43423   0.61637   1.000
    C364    C    0.95331   0.42630   0.63269   1.000
    H365    H    0.95978   0.41395   0.63868   1.000
    C366    C    0.11918   0.53981   0.56479   1.000
    C367    C    0.13608   0.54693   0.57179   1.000
    H368    H    0.14238   0.54064   0.58407   1.000
    C369    C    0.88264   0.45859   0.56455   1.000
    C370    C    0.86648   0.45087   0.57245   1.000
    H371    H    0.86051   0.45710   0.58485   1.000
    C372    C    0.06506   0.61772   0.54101   1.000
    C373    C    0.07175   0.63462   0.54844   1.000
    H374    H    0.08393   0.64125   0.54240   1.000
    C375    C    0.93649   0.38179   0.53905   1.000
    C376    C    0.92960   0.36496   0.54649   1.000
    H377    H    0.91723   0.35860   0.54051   1.000
    C378    C    0.06560   0.45883   0.61749   1.000
    C379    C    0.07236   0.45146   0.63443   1.000
    H380    H    0.08444   0.45772   0.64106   1.000
    C381    C    0.93625   0.53900   0.61774   1.000
    C382    C    0.92935   0.54627   0.63460   1.000
    H383    H    0.91716   0.54006   0.64107   1.000
    C384    C    0.96067   0.61724   0.56448   1.000
    C385    C    0.95393   0.63423   0.57156   1.000
    H386    H    0.96047   0.64038   0.58374   1.000
    C387    C    0.04254   0.38263   0.56322   1.000
    C388    C    0.05029   0.36633   0.57099   1.000
    H389    H    0.04385   0.35999   0.58313   1.000
    C390    C    0.12046   0.43632   0.53935   1.000
    C391    C    0.13735   0.42923   0.54649   1.000
    H392    H    0.14376   0.41713   0.54003   1.000
    C393    C    0.88218   0.56410   0.54077   1.000
    C394    C    0.86526   0.57088   0.54807   1.000
    H395    H    0.85875   0.58323   0.54209   1.000
    C396    C    0.04990   0.45057   0.60907   1.000
    H397    H    0.04481   0.45594   0.59584   1.000
    C398    C    0.06373   0.43595   0.64283   1.000
    C399    C    0.95200   0.54733   0.60949   1.000
    H400    H    0.95718   0.54207   0.59631   1.000
    C401    C    0.93797   0.56169   0.64312   1.000
    C402    C    0.89048   0.54822   0.54897   1.000
    H403    H    0.90376   0.54318   0.54373   1.000
    C404    C    0.85663   0.56186   0.56317   1.000
    C405    C    0.11202   0.45167   0.54821   1.000
    H406    H    0.09884   0.45703   0.54293   1.000
    C407    C    0.14558   0.43700   0.56248   1.000
    C408    C    0.05103   0.39068   0.54747   1.000
    H409    H    0.04531   0.40345   0.54162   1.000
    C410    C    0.06653   0.35826   0.56352   1.000
    C411    C    0.95178   0.60922   0.54896   1.000
    H412    H    0.95681   0.59599   0.54358   1.000
    C413    C    0.93821   0.64294   0.56365   1.000
    C414    C    0.95225   0.45027   0.60879   1.000
    H415    H    0.95772   0.45625   0.59601   1.000
    C416    C    0.93741   0.43396   0.64125   1.000
    C417    C    0.04958   0.54736   0.60977   1.000
    H418    H    0.04453   0.54213   0.59651   1.000
    C419    C    0.06320   0.56168   0.64360   1.000
    C420    C    0.95248   0.38991   0.54711   1.000
    H421    H    0.95764   0.40310   0.54174   1.000
    C422    C    0.93840   0.35635   0.56182   1.000
    C423    C    0.04934   0.60924   0.54917   1.000
    H424    H    0.04433   0.59602   0.54381   1.000
    C425    C    0.06285   0.64298   0.56379   1.000
    C426    C    0.89023   0.45038   0.54846   1.000
    H427    H    0.90291   0.45609   0.54252   1.000
    C428    C    0.85808   0.43493   0.56476   1.000
    C429    C    0.11087   0.54846   0.54919   1.000
    H430    H    0.09768   0.54323   0.54391   1.000
    C431    C    0.14452   0.56264   0.56355   1.000
    C432    C    0.45979   0.93560   0.38229   1.000
    C433    C    0.45229   0.92781   0.36594   1.000
    H434    H    0.45881   0.91559   0.35984   1.000
    C435    C    0.53879   0.06460   0.38189   1.000
    C436    C    0.54585   0.07175   0.36505   1.000
    H437    H    0.53933   0.08390   0.35869   1.000
    C438    C    0.38171   0.95884   0.43481   1.000
    C439    C    0.36542   0.95081   0.42734   1.000
    H440    H    0.35923   0.95659   0.41475   1.000
    C441    C    0.61745   0.04224   0.43627   1.000
    C442    C    0.63377   0.05032   0.42891   1.000
    H443    H    0.63992   0.04465   0.41633   1.000
    C444    C    0.43604   0.88176   0.45911   1.000
    C445    C    0.42871   0.86548   0.45088   1.000
    H446    H    0.41610   0.85922   0.45643   1.000
    C447    C    0.56251   0.11741   0.46030   1.000
    C448    C    0.57026   0.13364   0.45252   1.000
    H449    H    0.58246   0.13991   0.45893   1.000
    C450    C    0.43396   0.04036   0.38167   1.000
    C451    C    0.42616   0.04813   0.36541   1.000
    H452    H    0.41388   0.04179   0.35923   1.000
    C453    C    0.56472   0.96129   0.38287   1.000
    C454    C    0.57162   0.95415   0.36596   1.000
    H455    H    0.58379   0.96043   0.35952   1.000
    C456    C    0.54143   0.88338   0.43596   1.000
    C457    C    0.54960   0.86705   0.42864   1.000
    H458    H    0.54397   0.86079   0.41607   1.000
    C459    C    0.45810   0.11693   0.43590   1.000
    C460    C    0.45016   0.13347   0.42873   1.000
    H461    H    0.45589   0.13984   0.41625   1.000
    C462    C    0.38068   0.06333   0.45921   1.000
    C463    C    0.36444   0.07124   0.45144   1.000
    H464    H    0.35825   0.08349   0.45784   1.000
    C465    C    0.61811   0.93762   0.46135   1.000
    C466    C    0.63503   0.93061   0.45433   1.000
    H467    H    0.64132   0.91830   0.46062   1.000
    C468    C    0.45783   0.06483   0.38156   1.000
    C469    C    0.44976   0.07243   0.36524   1.000
    H470    H    0.45544   0.08510   0.35919   1.000
    C471    C    0.54037   0.93736   0.38275   1.000
    C472    C    0.54736   0.93055   0.36578   1.000
    H473    H    0.54109   0.91834   0.35944   1.000
    C474    C    0.61809   0.96159   0.43692   1.000
    C475    C    0.63495   0.95425   0.43001   1.000
    H476    H    0.64139   0.96044   0.41780   1.000
    C477    C    0.38063   0.03972   0.43458   1.000
    C478    C    0.36436   0.04788   0.42699   1.000
    H479    H    0.35840   0.04236   0.41423   1.000
    C480    C    0.43411   0.11621   0.46014   1.000
    C481    C    0.42642   0.13272   0.45278   1.000
    H482    H    0.41410   0.13880   0.45914   1.000
    C483    C    0.56529   0.88385   0.46045   1.000
    C484    C    0.57323   0.86761   0.45293   1.000
    H485    H    0.58558   0.86154   0.45934   1.000
    C486    C    0.56381   0.04124   0.38232   1.000
    C487    C    0.57072   0.04864   0.36550   1.000
    H488    H    0.58312   0.04265   0.35923   1.000
    C489    C    0.43509   0.95934   0.38182   1.000
    C490    C    0.42779   0.95129   0.36547   1.000
    H491    H    0.41511   0.95690   0.35931   1.000
    C492    C    0.53884   0.11736   0.43555   1.000
    C493    C    0.54692   0.13362   0.42797   1.000
    H494    H    0.54136   0.13960   0.41519   1.000
    C495    C    0.46057   0.88245   0.43539   1.000
    C496    C    0.45310   0.86621   0.42744   1.000
    H497    H    0.45959   0.86024   0.41516   1.000
    C498    C    0.61696   0.06608   0.46070   1.000
    C499    C    0.63324   0.07398   0.45310   1.000
    H500    H    0.63926   0.08631   0.45946   1.000
    C501    C    0.38228   0.93470   0.45905   1.000
    C502    C    0.36600   0.92690   0.45138   1.000
    H503    H    0.35998   0.91450   0.45765   1.000
    C504    C    0.45120   0.95147   0.39002   1.000
    H505    H    0.45671   0.95734   0.40282   1.000
    C506    C    0.43621   0.93542   0.35753   1.000
    C507    C    0.54773   0.04921   0.39029   1.000
    H508    H    0.54253   0.04382   0.40344   1.000
    C509    C    0.56182   0.06391   0.35679   1.000
    C510    C    0.38993   0.95078   0.45078   1.000
    H511    H    0.40269   0.95666   0.45641   1.000
    C512    C    0.35757   0.93474   0.43545   1.000
    C513    C    0.60929   0.05011   0.45227   1.000
    H514    H    0.59655   0.04416   0.45783   1.000
    C515    C    0.64169   0.06627   0.43716   1.000
    C516    C    0.45207   0.89002   0.45132   1.000
    H517    H    0.45760   0.90277   0.45730   1.000
    C518    C    0.43709   0.85774   0.43490   1.000
    C519    C    0.54669   0.10941   0.45181   1.000
    H520    H    0.54085   0.09667   0.45753   1.000
    C521    C    0.56277   0.14169   0.43627   1.000
    C522    C    0.44989   0.04871   0.38954   1.000
    H523    H    0.45577   0.04297   0.40228   1.000
    C524    C    0.43381   0.06423   0.35719   1.000
    C525    C    0.54899   0.95288   0.39108   1.000
    H526    H    0.54380   0.95803   0.40430   1.000
    C527    C    0.56300   0.93879   0.35734   1.000
    C528    C    0.54930   0.89156   0.45199   1.000
    H529    H    0.54333   0.90432   0.45753   1.000
    C530    C    0.56562   0.85923   0.43697   1.000
    C531    C    0.45006   0.10850   0.45173   1.000
    H532    H    0.45584   0.09554   0.45712   1.000
    C533    C    0.43420   0.14131   0.43700   1.000
    C534    C    0.38856   0.04747   0.45079   1.000
    H535    H    0.40129   0.04153   0.45653   1.000
    C536    C    0.35629   0.06378   0.43525   1.000
    C537    C    0.60986   0.95326   0.45270   1.000
    H538    H    0.59665   0.95856   0.45787   1.000
    C539    C    0.64347   0.93874   0.43863   1.000
    C540    C    0.54016   0.93550   0.61839   1.000
    C541    C    0.54824   0.92802   0.63472   1.000
    H542    H    0.54274   0.91526   0.64076   1.000
    C543    C    0.45790   0.06369   0.61978   1.000
    C544    C    0.45035   0.07053   0.63655   1.000
    H545    H    0.45637   0.08280   0.64304   1.000
    C546    C    0.38126   0.03917   0.56531   1.000
    C547    C    0.36497   0.04718   0.57284   1.000
    H548    H    0.35912   0.04163   0.58564   1.000
    C549    C    0.61664   0.96123   0.56561   1.000
    C550    C    0.63305   0.95373   0.57335   1.000
    H551    H    0.63913   0.96003   0.58569   1.000
    C552    C    0.56505   0.88266   0.54098   1.000
    C553    C    0.57258   0.86615   0.54868   1.000
    H554    H    0.58520   0.86015   0.54286   1.000
    C555    C    0.43318   0.11605   0.54063   1.000
    C556    C    0.42535   0.13252   0.54782   1.000
    H557    H    0.41317   0.13863   0.54114   1.000
    C558    C    0.43501   0.95837   0.61853   1.000
    C559    C    0.42771   0.95027   0.63488   1.000
    H560    H    0.41510   0.95591   0.64108   1.000
    C561    C    0.56310   0.04136   0.61880   1.000
    C562    C    0.57111   0.04915   0.63485   1.000
    H563    H    0.58365   0.04298   0.64077   1.000
    C564    C    0.45994   0.88189   0.56462   1.000
    C565    C    0.45197   0.86558   0.57220   1.000
    H566    H    0.45767   0.85956   0.58490   1.000
    C567    C    0.53722   0.11760   0.56504   1.000
    C568    C    0.54419   0.13455   0.57198   1.000
    H569    H    0.53789   0.14082   0.58420   1.000
    C570    C    0.38247   0.93516   0.53957   1.000
    C571    C    0.36545   0.92832   0.54657   1.000
    H572    H    0.35895   0.91623   0.54021   1.000
    C573    C    0.61694   0.06535   0.54138   1.000
    C574    C    0.63396   0.07216   0.54849   1.000
    H575    H    0.64049   0.08420   0.54205   1.000
    C576    C    0.53880   0.06545   0.61944   1.000
    C577    C    0.54708   0.07310   0.63557   1.000
    H578    H    0.54131   0.08565   0.64177   1.000
    C579    C    0.45960   0.93459   0.61815   1.000
    C580    C    0.45212   0.92672   0.63444   1.000
    H581    H    0.45858   0.91441   0.64055   1.000
    C582    C    0.61685   0.04115   0.56552   1.000
    C583    C    0.63389   0.04804   0.57237   1.000
    H584    H    0.64015   0.04172   0.58466   1.000
    C585    C    0.38239   0.95930   0.56372   1.000
    C586    C    0.36529   0.95239   0.57031   1.000
    H587    H    0.35886   0.95862   0.58249   1.000
    C588    C    0.56168   0.11767   0.54118   1.000
    C589    C    0.56850   0.13457   0.54848   1.000
    H590    H    0.58069   0.14109   0.54233   1.000
    C591    C    0.43604   0.88198   0.54014   1.000
    C592    C    0.42833   0.86571   0.54792   1.000
    H593    H    0.41604   0.85951   0.54162   1.000
    C594    C    0.56362   0.96032   0.61841   1.000
    C595    C    0.57148   0.95262   0.63467   1.000
    H596    H    0.58368   0.95906   0.64091   1.000
    C597    C    0.43433   0.03898   0.61953   1.000
    C598    C    0.42706   0.04592   0.63635   1.000
    H599    H    0.41481   0.03945   0.64243   1.000
    C600    C    0.45676   0.11668   0.56541   1.000
    C601    C    0.44864   0.13317   0.57241   1.000
    H602    H    0.45418   0.13951   0.58498   1.000
    C603    C    0.54072   0.88244   0.56487   1.000
    C604    C    0.54842   0.86597   0.57235   1.000
    H605    H    0.54212   0.85957   0.58453   1.000
    C606    C    0.61727   0.93706   0.54162   1.000
    C607    C    0.63370   0.92972   0.54959   1.000
    H608    H    0.64000   0.91720   0.54385   1.000
    C609    C    0.38093   0.06271   0.54049   1.000
    C610    C    0.36468   0.07048   0.54821   1.000
    H611    H    0.35834   0.08268   0.54177   1.000
    C612    C    0.54786   0.95177   0.61045   1.000
    H613    H    0.54197   0.95743   0.59768   1.000
    C614    C    0.56403   0.93642   0.64280   1.000
    C615    C    0.44989   0.04781   0.61152   1.000
    H616    H    0.45538   0.04267   0.59841   1.000
    C617    C    0.43494   0.06169   0.64495   1.000
    C618    C    0.38902   0.04694   0.54903   1.000
    H619    H    0.40178   0.04109   0.54335   1.000
    C620    C    0.35671   0.06295   0.56446   1.000
    C621    C    0.60893   0.95293   0.54963   1.000
    H622    H    0.59606   0.95846   0.54381   1.000
    C623    C    0.64155   0.93789   0.56557   1.000
    C624    C    0.54901   0.89058   0.54908   1.000
    H625    H    0.54333   0.90348   0.54347   1.000
    C626    C    0.56442   0.85782   0.56447   1.000
    C627    C    0.44899   0.10831   0.54941   1.000
    H628    H    0.45492   0.09543   0.54410   1.000
    C629    C    0.43283   0.14108   0.56376   1.000
    C630    C    0.45107   0.95052   0.61039   1.000
    H631    H    0.45659   0.95644   0.59760   1.000
    C632    C    0.43611   0.93433   0.64280   1.000
    C633    C    0.54686   0.04948   0.61130   1.000
    H634    H    0.54084   0.04369   0.59869   1.000
    C635    C    0.56338   0.06509   0.64321   1.000
    C636    C    0.45195   0.88989   0.54849   1.000
    H637    H    0.45775   0.90266   0.54277   1.000
    C638    C    0.43605   0.85754   0.56403   1.000
    C639    C    0.54594   0.10935   0.54949   1.000
    H640    H    0.54083   0.09612   0.54423   1.000
    C641    C    0.55988   0.14304   0.56389   1.000
    C642    C    0.39077   0.95076   0.54818   1.000
    H643    H    0.40410   0.95588   0.54316   1.000
    C644    C    0.35680   0.93690   0.56191   1.000
    C645    C    0.60863   0.04974   0.54989   1.000
    H646    H    0.59536   0.04462   0.54471   1.000
    C647    C    0.64256   0.06353   0.56398   1.000
    C648    C    0.45982   0.43679   0.88253   1.000
    C649    C    0.45244   0.43000   0.86568   1.000
    H650    H    0.45872   0.41791   0.85908   1.000
    C651    C    0.54209   0.56377   0.88100   1.000
    C652    C    0.55027   0.57124   0.86477   1.000
    H653    H    0.54463   0.58391   0.85860   1.000
    C654    C    0.38209   0.46126   0.93708   1.000
    C655    C    0.36531   0.45395   0.92998   1.000
    H656    H    0.35919   0.45995   0.91747   1.000
    C657    C    0.61821   0.53985   0.93572   1.000
    C658    C    0.63438   0.54797   0.92803   1.000
    H659    H    0.64037   0.54225   0.91539   1.000
    C660    C    0.43536   0.38428   0.96174   1.000
    C661    C    0.42807   0.36746   0.95476   1.000
    H662    H    0.41584   0.36132   0.96121   1.000
    C663    C    0.56523   0.61729   0.95946   1.000
    C664    C    0.57283   0.63370   0.95189   1.000
    H665    H    0.58491   0.64008   0.95842   1.000
    C666    C    0.43613   0.54062   0.88238   1.000
    C667    C    0.42909   0.54770   0.86545   1.000
    H668    H    0.41674   0.54150   0.85925   1.000
    C669    C    0.56539   0.45854   0.88288   1.000
    C670    C    0.57313   0.45065   0.86673   1.000
    H671    H    0.58558   0.45676   0.86067   1.000
    C672    C    0.53936   0.38207   0.93655   1.000
    C673    C    0.54740   0.36579   0.92901   1.000
    H674    H    0.54188   0.35994   0.91621   1.000
    C675    C    0.46233   0.61837   0.93433   1.000
    C676    C    0.45528   0.63525   0.92710   1.000
    H677    H    0.46126   0.64114   0.91450   1.000
    C678    C    0.38457   0.56635   0.96073   1.000
    C679    C    0.36753   0.57338   0.95388   1.000
    H680    H    0.36152   0.58588   0.95995   1.000
    C681    C    0.61667   0.43433   0.96125   1.000
    C682    C    0.63306   0.42646   0.95389   1.000
    H683    H    0.63901   0.41406   0.96029   1.000
    C684    C    0.46098   0.56404   0.88151   1.000
    C685    C    0.45374   0.57089   0.86457   1.000
    H686    H    0.46015   0.58292   0.85797   1.000
    C687    C    0.54095   0.43463   0.88252   1.000
    C688    C    0.54896   0.42691   0.86630   1.000
    H689    H    0.54301   0.41442   0.86019   1.000
    C690    C    0.61759   0.45848   0.93703   1.000
    C691    C    0.63398   0.45034   0.92986   1.000
    H692    H    0.64034   0.45607   0.91738   1.000
    C693    C    0.38367   0.54182   0.93706   1.000
    C694    C    0.36669   0.54912   0.93035   1.000
    H695    H    0.35981   0.54264   0.91854   1.000
    C696    C    0.43873   0.61935   0.95895   1.000
    C697    C    0.43180   0.63617   0.95142   1.000
    H698    H    0.41990   0.64299   0.95783   1.000
    C699    C    0.56296   0.38185   0.96126   1.000
    C700    C    0.57075   0.36560   0.95356   1.000
    H701    H    0.58298   0.35930   0.95996   1.000
    C702    C    0.56607   0.53936   0.88170   1.000
    C703    C    0.57405   0.54702   0.86551   1.000
    H704    H    0.58648   0.54070   0.85962   1.000
    C705    C    0.43569   0.46105   0.88292   1.000
    C706    C    0.42858   0.45414   0.86602   1.000
    H707    H    0.41621   0.46045   0.85989   1.000
    C708    C    0.54183   0.61709   0.93455   1.000
    C709    C    0.54965   0.63353   0.92718   1.000
    H710    H    0.54408   0.63954   0.91442   1.000
    C711    C    0.45895   0.38399   0.93697   1.000
    C712    C    0.45132   0.36722   0.93019   1.000
    H713    H    0.45731   0.36064   0.91797   1.000
    C714    C    0.61794   0.56399   0.95984   1.000
    C715    C    0.63415   0.57174   0.95204   1.000
    H716    H    0.64030   0.58407   0.95829   1.000
    C717    C    0.38188   0.43738   0.96160   1.000
    C718    C    0.36514   0.43021   0.95422   1.000
    H719    H    0.35865   0.41815   0.96069   1.000
    C720    C    0.45146   0.45243   0.89094   1.000
    H721    H    0.45683   0.45751   0.90413   1.000
    C722    C    0.43680   0.43858   0.85738   1.000
    C723    C    0.54999   0.54771   0.88921   1.000
    H724    H    0.54399   0.54209   0.90191   1.000
    C725    C    0.56636   0.56305   0.85703   1.000
    C726    C    0.39014   0.45300   0.95301   1.000
    H727    H    0.40322   0.45838   0.95840   1.000
    C728    C    0.35676   0.43839   0.93840   1.000
    C729    C    0.61016   0.54793   0.95170   1.000
    H730    H    0.59746   0.54207   0.95747   1.000
    C731    C    0.64233   0.56405   0.93602   1.000
    C732    C    0.45093   0.39235   0.95285   1.000
    H733    H    0.45648   0.40546   0.95798   1.000
    C734    C    0.43588   0.35889   0.93897   1.000
    C735    C    0.54961   0.60917   0.95081   1.000
    H736    H    0.54390   0.59630   0.95639   1.000
    C737    C    0.56526   0.64180   0.93569   1.000
    C738    C    0.45218   0.54877   0.89020   1.000
    H739    H    0.45750   0.54359   0.90342   1.000
    C740    C    0.43778   0.56285   0.85647   1.000
    C741    C    0.54921   0.45053   0.89056   1.000
    H742    H    0.54338   0.45637   0.90322   1.000
    C743    C    0.56518   0.43476   0.85842   1.000
    C744    C    0.54715   0.38989   0.95279   1.000
    H745    H    0.54131   0.40265   0.95846   1.000
    C746    C    0.56324   0.35762   0.93735   1.000
    C747    C    0.45411   0.61064   0.95039   1.000
    H748    H    0.45931   0.59748   0.95588   1.000
    C749    C    0.43998   0.64419   0.93549   1.000
    C750    C    0.39243   0.55043   0.95236   1.000
    H751    H    0.40572   0.54512   0.95738   1.000
    C752    C    0.35857   0.56493   0.93865   1.000
    C753    C    0.60912   0.45044   0.95284   1.000
    H754    H    0.59628   0.45638   0.95823   1.000
    C755    C    0.64170   0.43424   0.93812   1.000
    C756    C    0.54168   0.43673   0.11973   1.000
    C757    C    0.54978   0.42930   0.13609   1.000
    H758    H    0.54383   0.41696   0.14255   1.000
    C759    C    0.46155   0.56648   0.11884   1.000
    C760    C    0.45456   0.57364   0.13569   1.000
    H761    H    0.46105   0.58581   0.14191   1.000
    C762    C    0.38410   0.54339   0.06450   1.000
    C763    C    0.36759   0.55140   0.07152   1.000
    H764    H    0.36112   0.54562   0.08392   1.000
    C765    C    0.61889   0.45882   0.06484   1.000
    C766    C    0.63526   0.45061   0.07215   1.000
    H767    H    0.64184   0.45649   0.08444   1.000
    C768    C    0.56312   0.38186   0.04225   1.000
    C769    C    0.56996   0.36482   0.04930   1.000
    H770    H    0.58191   0.35824   0.04275   1.000
    C771    C    0.43821   0.62029   0.04052   1.000
    C772    C    0.43020   0.63632   0.04850   1.000
    H773    H    0.41790   0.64255   0.04218   1.000
    C774    C    0.43635   0.46270   0.11944   1.000
    C775    C    0.42895   0.45574   0.13619   1.000
    H776    H    0.41656   0.46214   0.14210   1.000
    C777    C    0.56641   0.54054   0.11712   1.000
    C778    C    0.57406   0.54786   0.13358   1.000
    H779    H    0.58637   0.54143   0.13970   1.000
    C780    C    0.46019   0.38437   0.06666   1.000
    C781    C    0.45322   0.36732   0.07345   1.000
    H782    H    0.45947   0.36094   0.08572   1.000
    C783    C    0.54245   0.61898   0.06506   1.000
    C784    C    0.55064   0.63528   0.07235   1.000
    H785    H    0.54506   0.64149   0.08496   1.000
    C786    C    0.38215   0.43781   0.04254   1.000
    C787    C    0.36545   0.43076   0.05015   1.000
    H788    H    0.35899   0.41852   0.04404   1.000
    C789    C    0.61906   0.56444   0.04015   1.000
    C790    C    0.63543   0.57219   0.04766   1.000
    H791    H    0.64137   0.58463   0.04140   1.000
    C792    C    0.54237   0.56493   0.11771   1.000
    C793    C    0.55029   0.57203   0.13420   1.000
    H794    H    0.54453   0.58451   0.14055   1.000
    C795    C    0.46016   0.43805   0.12015   1.000
    C796    C    0.45237   0.43117   0.13684   1.000
    H797    H    0.45828   0.41886   0.14346   1.000
    C798    C    0.61988   0.54018   0.06423   1.000
    C799    C    0.63630   0.54814   0.07157   1.000
    H800    H    0.64265   0.54229   0.08403   1.000
    C801    C    0.38232   0.46236   0.06629   1.000
    C802    C    0.36558   0.45516   0.07361   1.000
    H803    H    0.35948   0.46149   0.08591   1.000
    C804    C    0.56615   0.61836   0.04053   1.000
    C805    C    0.57411   0.63464   0.04801   1.000
    H806    H    0.58640   0.64064   0.04154   1.000
    C807    C    0.43600   0.38439   0.04243   1.000
    C808    C    0.42918   0.36739   0.04955   1.000
    H809    H    0.41714   0.36085   0.04313   1.000
    C810    C    0.56632   0.46037   0.11854   1.000
    C811    C    0.57412   0.45281   0.13489   1.000
    H812    H    0.58666   0.45894   0.14074   1.000
    C813    C    0.43676   0.54297   0.11885   1.000
    C814    C    0.42990   0.55044   0.13566   1.000
    H815    H    0.41762   0.54440   0.14211   1.000
    C816    C    0.46179   0.61994   0.06530   1.000
    C817    C    0.45355   0.63598   0.07310   1.000
    H818    H    0.45900   0.64166   0.08602   1.000
    C819    C    0.53987   0.38257   0.06723   1.000
    C820    C    0.54701   0.36555   0.07417   1.000
    H821    H    0.54094   0.35929   0.08654   1.000
    C822    C    0.61746   0.43433   0.04118   1.000
    C823    C    0.63376   0.42633   0.04866   1.000
    H824    H    0.63948   0.41372   0.04254   1.000
    C825    C    0.38505   0.56752   0.04025   1.000
    C826    C    0.36856   0.57528   0.04747   1.000
    H827    H    0.36257   0.58765   0.04102   1.000
    C828    C    0.55000   0.45236   0.11117   1.000
    H829    H    0.54411   0.45795   0.09836   1.000
    C830    C    0.56612   0.43718   0.14365   1.000
    C831    C    0.45268   0.55101   0.11065   1.000
    H832    H    0.45785   0.54558   0.09753   1.000
    C833    C    0.43872   0.56578   0.14418   1.000
    C834    C    0.39263   0.55146   0.04874   1.000
    H835    H    0.40555   0.54560   0.04345   1.000
    C836    C    0.35984   0.56744   0.06316   1.000
    C837    C    0.61023   0.45066   0.04923   1.000
    H838    H    0.59744   0.45666   0.04371   1.000
    C839    C    0.64265   0.43424   0.06421   1.000
    C840    C    0.54794   0.39050   0.05118   1.000
    H841    H    0.54277   0.40377   0.04594   1.000
    C842    C    0.56205   0.35656   0.06525   1.000
    C843    C    0.45412   0.61233   0.04891   1.000
    H844    H    0.46014   0.59975   0.04303   1.000
    C845    C    0.43762   0.64415   0.06489   1.000
    C846    C    0.45210   0.45392   0.11166   1.000
    H847    H    0.45772   0.45907   0.09859   1.000
    C848    C    0.43677   0.43997   0.14493   1.000
    C849    C    0.55045   0.54906   0.10934   1.000
    H850    H    0.54469   0.54370   0.09643   1.000
    C851    C    0.56624   0.56366   0.14208   1.000
    C852    C    0.45162   0.39269   0.05100   1.000
    H853    H    0.45674   0.40597   0.04584   1.000
    C854    C    0.43770   0.35880   0.06505   1.000
    C855    C    0.55022   0.61075   0.04904   1.000
    H856    H    0.54423   0.59800   0.04353   1.000
    C857    C    0.56658   0.64312   0.06399   1.000
    C858    C    0.39036   0.45369   0.05065   1.000
    H859    H    0.40339   0.45900   0.04510   1.000
    C860    C    0.35705   0.43934   0.06570   1.000
    C861    C    0.61150   0.54834   0.04841   1.000
    H862    H    0.59865   0.54253   0.04289   1.000
    C863    C    0.64403   0.56428   0.06345   1.000
loop_
    _geom_bond_atom_site_label_1
    _geom_bond_atom_site_label_2
    _geom_bond_distance
    _geom_bond_site_symmetry_2
    _ccdc_geom_bond_type
    C311   C238      1.40370      .   S
    C311   C256      1.40715      .   S
    C509   C436      1.40372      .   S
    C509   C487      1.40607      .   S
    C524   C469      1.40689      .   S
    C524   C451      1.40391      .   S
    C527   C472      1.40260      .   S
    C527   C454      1.40441      .   S
    C506   C490      1.40547      .   S
    C506   C433      1.40476      .   S
    C308   C235      1.40342      .   S
    C308   C253      1.40332      .   S
    H239   C238      1.08394      .   S
    C293   C271      1.40556      .   S
    C293   C220      1.40219      .   S
    H437   C436      1.08364      .   S
    H257   C256      1.08318      .   S
    C290   C274      1.40515      .   S
    C290   C217      1.40121      .   S
    H470   C469      1.08321      .   S
    H488   C487      1.08284      .   S
    H452   C451      1.08346      .   S
    H491   C490      1.08321      .   S
    H236   C235      1.08341      .   S
    H473   C472      1.08278      .   S
    H455   C454      1.08356      .   S
    H272   C271      1.08346      .   S
    H434   C433      1.08293      .   S
    H254   C253      1.08366      .   S
    H275   C274      1.08332      .   S
    H218   C217      1.08291      .   S
    H221   C220      1.08327      .   S
    C238   C237      1.40324      .   S
    C436   C435      1.40378      .   S
    C256   C255      1.40818      .   S
    C469   C468      1.40924      .   S
    C451   C450      1.40265      .   S
    C490   C489      1.40614      .   S
    C487   C486      1.40530      .   S
    C472   C471      1.40309      .   S
    C433   C432      1.40396      .   S
    C454   C453      1.40551      .   S
    C235   C234      1.40500      .   S
    C271   C270      1.40821      .   S
    C253   C252      1.40392      .   S
    C274   C273      1.40815      .   S
    C220   C219      1.40225      .   S
    C217   C216      1.40162      .   S
    C468   C522      1.40630      .   S
    C237   C309      1.40502      .   S
    C450   C522      1.40506      .   S
    C489   C504      1.40745      .   S
    C435   C507      1.40443      .   S
    C255   C309      1.40571      .   S
    C432   C504      1.40466      .   S
    C486   C507      1.40522      .   S
    C270   C291      1.40617      .   S
    C471   C525      1.40443      .   S
    C453   C525      1.40591      .   S
    C234   C306      1.40606      .   S
    C273   C288      1.40975      .   S
    C216   C288      1.40576      .   S
    C219   C291      1.40337      .   S
    C252   C306      1.40542      .   S
    C522   H523      1.08299      .   S
    C309   H310      1.08279      .   S
    C504   H505      1.08304      .   S
    C507   H508      1.08331      .   S
    C525   H526      1.08280      .   S
    C291   H292      1.08262      .   S
    C288   H289      1.08334      .   S
    C306   H307      1.08339      .   S
    H260   C259      1.08336      .   S
    H479   C478      1.08329      .   S
    H440   C439      1.08386      .   S
    H497   C496      1.08349      .   S
    H494   C493      1.08339      .   S
    H263   C262      1.08375      .   S
    H281   C280      1.08350      .   S
    H242   C241      1.08343      .   S
    H458   C457      1.08363      .   S
    H224   C223      1.08359      .   S
    H461   C460      1.08353      .   S
    H443   C442      1.08274      .   S
    H227   C226      1.08375      .   S
    H245   C244      1.08287      .   S
    H476   C475      1.08298      .   S
    H278   C277      1.08338      .   S
    C259   C323      1.40407      .   S
    C259   C258      1.40299      .   S
    C478   C477      1.40781      .   S
    C478   C536      1.40626      .   S
    C439   C438      1.40539      .   S
    C439   C512      1.40458      .   S
    C496   C518      1.40249      .   S
    C496   C495      1.40104      .   S
    C280   C302      1.40393      .   S
    C280   C279      1.40472      .   S
    C241   C240      1.40759      .   S
    C241   C314      1.40580      .   S
    C493   C492      1.40734      .   S
    C493   C521      1.40468      .   S
    C262   C261      1.40735      .   S
    C262   C320      1.40576      .   S
    C223   C222      1.40398      .   S
    C223   C296      1.40601      .   S
    C457   C456      1.40747      .   S
    C457   C530      1.40468      .   S
    C460   C459      1.40586      .   S
    C460   C533      1.40344      .   S
    C442   C441      1.40630      .   S
    C442   C515      1.40556      .   S
    C226   C225      1.40314      .   S
    C226   C299      1.40226      .   S
    C244   C243      1.40425      .   S
    C244   C317      1.40446      .   S
    C475   C474      1.40547      .   S
    C475   C539      1.40467      .   S
    C277   C276      1.40426      .   S
    C277   C305      1.40464      .   S
    C323   C250      1.40753      .   S
    C258   C321      1.40362      .   S
    C477   C534      1.40655      .   S
    C438   C510      1.40609      .   S
    C302   C229      1.40514      .   S
    C518   C445      1.40713      .   S
    C536   C463      1.40370      .   S
    C495   C516      1.40315      .   S
    C279   C300      1.40673      .   S
    C512   C502      1.40378      .   S
    C240   C312      1.40574      .   S
    C492   C519      1.40917      .   S
    C261   C318      1.40727      .   S
    C222   C294      1.40349      .   S
    C314   C268      1.40276      .   S
    C459   C531      1.40685      .   S
    C456   C528      1.40680      .   S
    C320   C247      1.40336      .   S
    C521   C448      1.40148      .   S
    C441   C513      1.40537      .   S
    C225   C297      1.40505      .   S
    C296   C286      1.40657      .   S
    C474   C537      1.40659      .   S
    C530   C484      1.40147      .   S
    C533   C481      1.40136      .   S
    C243   C315      1.40198      .   S
    C515   C499      1.40610      .   S
    C276   C303      1.40501      .   S
    C299   C283      1.40437      .   S
    C317   C265      1.40689      .   S
    C305   C232      1.40522      .   S
    C539   C466      1.40244      .   S
    C250   H251      1.08342      .   S
    C250   C249      1.40758      .   S
    C321   H322      1.08276      .   S
    C321   C249      1.40661      .   S
    C229   H230      1.08342      .   S
    C229   C228      1.40722      .   S
    C510   H511      1.08313      .   S
    C510   C501      1.40424      .   S
    C534   H535      1.08338      .   S
    C534   C462      1.40335      .   S
    C445   H446      1.08347      .   S
    C445   C444      1.40793      .   S
    C300   H301      1.08304      .   S
    C300   C228      1.40845      .   S
    C312   H313      1.08310      .   S
    C312   C267      1.40388      .   S
    C516   H517      1.08346      .   S
    C516   C444      1.40646      .   S
    C502   H503      1.08309      .   S
    C502   C501      1.40364      .   S
    C294   H295      1.08280      .   S
    C294   C285      1.40552      .   S
    C463   H464      1.08373      .   S
    C463   C462      1.40379      .   S
    C268   H269      1.08318      .   S
    C268   C267      1.40306      .   S
    C531   H532      1.08341      .   S
    C531   C480      1.40348      .   S
    C318   H319      1.08316      .   S
    C318   C246      1.40627      .   S
    C519   H520      1.08263      .   S
    C519   C447      1.40670      .   S
    C297   H298      1.08280      .   S
    C297   C282      1.40665      .   S
    C286   H287      1.08323      .   S
    C286   C285      1.40633      .   S
    C528   H529      1.08303      .   S
    C528   C483      1.40381      .   S
    C247   H248      1.08325      .   S
    C247   C246      1.40251      .   S
    C513   H514      1.08258      .   S
    C513   C498      1.40511      .   S
    C448   H449      1.08358      .   S
    C448   C447      1.40158      .   S
    C315   H316      1.08338      .   S
    C315   C264      1.40535      .   S
    C537   H538      1.08346      .   S
    C537   C465      1.40476      .   S
    C481   H482      1.08344      .   S
    C481   C480      1.40198      .   S
    C303   H304      1.08374      .   S
    C303   C231      1.40533      .   S
    C484   H485      1.08371      .   S
    C484   C483      1.40087      .   S
    C499   H500      1.08308      .   S
    C499   C498      1.40525      .   S
    C265   H266      1.08307      .   S
    C265   C264      1.40782      .   S
    C283   H284      1.08334      .   S
    C283   C282      1.40475      .   S
    C232   H233      1.08342      .   S
    C232   C231      1.40548      .   S
    C466   H467      1.08385      .   S
    C466   C465      1.40338      .   S
    C375   C376      1.40516      .   S
    C375   C420      1.40712      .   S
    C390   C391      1.40371      .   S
    C390   C405      1.40496      .   S
    C570   C571      1.40569      .   S
    C570   C642      1.40777      .   S
    C336   C408      1.40801      .   S
    C336   C337      1.40834      .   S
    H392   C391      1.08348      .   S
    C591   C592      1.40281      .   S
    C591   C636      1.40498      .   S
    H572   C571      1.08344      .   S
    C354   C426      1.40809      .   S
    C354   C355      1.40947      .   S
    C609   C610      1.40229      .   S
    C609   C618      1.40402      .   S
    H377   C376      1.08355      .   S
    C555   C556      1.40248      .   S
    C555   C627      1.40425      .   S
    C393   C394      1.40500      .   S
    C393   C402      1.40625      .   S
    C357   C358      1.40477      .   S
    C357   C429      1.40494      .   S
    C339   C340      1.40622      .   S
    C339   C411      1.40600      .   S
    C552   C553      1.40685      .   S
    C552   C624      1.40528      .   S
    C372   C373      1.40610      .   S
    C372   C423      1.40599      .   S
    H557   C556      1.08334      .   S
    C588   C589      1.40580      .   S
    C588   C639      1.40676      .   S
    C573   C574      1.40689      .   S
    C573   C645      1.40379      .   S
    H593   C592      1.08341      .   S
    C606   C607      1.40509      .   S
    C606   C621      1.40509      .   S
    H409   C408      1.08242      .   S
    H359   C358      1.08287      .   S
    H421   C420      1.08322      .   S
    H611   C610      1.08348      .   S
    H575   C574      1.08265      .   S
    H395   C394      1.08385      .   S
    H338   C337      1.08315      .   S
    H590   C589      1.08331      .   S
    H341   C340      1.08348      .   S
    H374   C373      1.08298      .   S
    H427   C426      1.08272      .   S
    H637   C636      1.08333      .   S
    H554   C553      1.08314      .   S
    H356   C355      1.08370      .   S
    H406   C405      1.08361      .   S
    H643   C642      1.08367      .   S
    H619   C618      1.08350      .   S
    H625   C624      1.08275      .   S
    H412   C411      1.08335      .   S
    H403   C402      1.08325      .   S
    H622   C621      1.08299      .   S
    H424   C423      1.08262      .   S
    H608   C607      1.08363      .   S
    H430   C429      1.08327      .   S
    H628   C627      1.08321      .   S
    H640   C639      1.08311      .   S
    H646   C645      1.08309      .   S
    C391   C407      1.40299      .   S
    C376   C422      1.40403      .   S
    C571   C644      1.40385      .   S
    C420   C348      1.40594      .   S
    C408   C387      1.40452      .   S
    C337   C410      1.40516      .   S
    C556   C629      1.40233      .   S
    C592   C638      1.40307      .   S
    C358   C431      1.40511      .   S
    C394   C404      1.40235      .   S
    C642   C585      1.40552      .   S
    C610   C620      1.40334      .   S
    C405   C333      1.40522      .   S
    C340   C413      1.40467      .   S
    C373   C425      1.40561      .   S
    C426   C369      1.40426      .   S
    C589   C641      1.40342      .   S
    C574   C647      1.40733      .   S
    C636   C564      1.40695      .   S
    C355   C428      1.40695      .   S
    C553   C626      1.40507      .   S
    C411   C384      1.40373      .   S
    C402   C330      1.40675      .   S
    C618   C546      1.40572      .   S
    C624   C603      1.40331      .   S
    C423   C351      1.40336      .   S
    C429   C366      1.40531      .   S
    C627   C600      1.40796      .   S
    C639   C567      1.40780      .   S
    C607   C623      1.40300      .   S
    C621   C549      1.40297      .   S
    C645   C582      1.40246      .   S
    C422   C349      1.40385      .   S
    C644   C586      1.40081      .   S
    C407   C334      1.40533      .   S
    C348   C349      1.40457      .   S
    C404   C331      1.40226      .   S
    C387   C388      1.40238      .   S
    C410   C388      1.40335      .   S
    C431   C367      1.40525      .   S
    C413   C385      1.40160      .   S
    C585   C586      1.40222      .   S
    C629   C601      1.40495      .   S
    C425   C352      1.40280      .   S
    C641   C568      1.40250      .   S
    C647   C583      1.40451      .   S
    C638   C565      1.40394      .   S
    C333   C334      1.40646      .   S
    C330   C331      1.40393      .   S
    C620   C547      1.40414      .   S
    C626   C604      1.40320      .   S
    C384   C385      1.40242      .   S
    C369   C370      1.40152      .   S
    C564   C565      1.40707      .   S
    C351   C352      1.40282      .   S
    C428   C370      1.40292      .   S
    C366   C367      1.40458      .   S
    C603   C604      1.40309      .   S
    C567   C568      1.40326      .   S
    C546   C547      1.40621      .   S
    C600   C601      1.40711      .   S
    C582   C583      1.40354      .   S
    C623   C550      1.40156      .   S
    C549   C550      1.40163      .   S
    C349   H350      1.08319      .   S
    C586   H587      1.08336      .   S
    C388   H389      1.08337      .   S
    C331   H332      1.08396      .   S
    C334   H335      1.08283      .   S
    C385   H386      1.08362      .   S
    C352   H353      1.08342      .   S
    C367   H368      1.08329      .   S
    C568   H569      1.08294      .   S
    C565   H566      1.08340      .   S
    C604   H605      1.08323      .   S
    C583   H584      1.08357      .   S
    C601   H602      1.08366      .   S
    C370   H371      1.08270      .   S
    C547   H548      1.08301      .   S
    C550   H551      1.08367      .   S
    H397   C396      1.08312      .   S
    H415   C414      1.08321      .   S
    H400   C399      1.08277      .   S
    H418   C417      1.08308      .   S
    H631   C630      1.08345      .   S
    H613   C612      1.08294      .   S
    H616   C615      1.08328      .   S
    H634   C633      1.08324      .   S
    C414   C363      1.40327      .   S
    C414   C342      1.40640      .   S
    C396   C324      1.40442      .   S
    C396   C378      1.40540      .   S
    C399   C327      1.40368      .   S
    C399   C381      1.40582      .   S
    C417   C360      1.40427      .   S
    C417   C345      1.40593      .   S
    C630   C579      1.40342      .   S
    C630   C558      1.40564      .   S
    C612   C540      1.40710      .   S
    C612   C594      1.40404      .   S
    C633   C561      1.40240      .   S
    C633   C576      1.40640      .   S
    C615   C597      1.40346      .   S
    C615   C543      1.40441      .   S
    C363   C364      1.40319      .   S
    C342   C343      1.40770      .   S
    C324   C325      1.40562      .   S
    C378   C379      1.40548      .   S
    C327   C328      1.40377      .   S
    C381   C382      1.40584      .   S
    C360   C361      1.40274      .   S
    C345   C346      1.40731      .   S
    C579   C580      1.40132      .   S
    C540   C541      1.40687      .   S
    C594   C595      1.40240      .   S
    C558   C559      1.40668      .   S
    C561   C562      1.40058      .   S
    C576   C577      1.40930      .   S
    C597   C598      1.40438      .   S
    C543   C544      1.40636      .   S
    C364   H365      1.08291      .   S
    C364   C416      1.40386      .   S
    C343   H344      1.08346      .   S
    C343   C416      1.40632      .   S
    C325   H326      1.08287      .   S
    C325   C398      1.40511      .   S
    C379   H380      1.08319      .   S
    C379   C398      1.40468      .   S
    C580   H581      1.08370      .   S
    C580   C632      1.40265      .   S
    C382   H383      1.08356      .   S
    C382   C401      1.40464      .   S
    C328   H329      1.08360      .   S
    C328   C401      1.40260      .   S
    C595   H596      1.08363      .   S
    C595   C614      1.40157      .   S
    C541   H542      1.08353      .   S
    C541   C614      1.40461      .   S
    C562   H563      1.08352      .   S
    C562   C635      1.40187      .   S
    C559   H560      1.08357      .   S
    C559   C632      1.40456      .   S
    C361   H362      1.08335      .   S
    C361   C419      1.40197      .   S
    C346   H347      1.08303      .   S
    C346   C419      1.40503      .   S
    C577   H578      1.08345      .   S
    C577   C635      1.40659      .   S
    C598   H599      1.08322      .   S
    C598   C617      1.40479      .   S
    C544   H545      1.08356      .   S
    C544   C617      1.40700      .   S
    C185   C112      1.40459      .   S
    C185   C166      1.40689      .   S
    C200   C127      1.40407      .   S
    C200   C148      1.40603      .   S
    H113   C112      1.08288      .   S
    C203   C145      1.40575      .   S
    C203   C130      1.40268      .   S
    C740   C685      1.40418      .   S
    C740   C667      1.40485      .   S
    H167   C166      1.08312      .   S
    C182   C109      1.40576      .   S
    C182   C163      1.40438      .   S
    C725   C652      1.40562      .   S
    C725   C703      1.40576      .   S
    C722   C649      1.40444      .   S
    C722   C706      1.40304      .   S
    H146   C145      1.08320      .   S
    H128   C127      1.08355      .   S
    H686   C685      1.08332      .   S
    H149   C148      1.08306      .   S
    C743   C688      1.40817      .   S
    C743   C670      1.40476      .   S
    H110   C109      1.08290      .   S
    H653   C652      1.08333      .   S
    H164   C163      1.08323      .   S
    H650   C649      1.08339      .   S
    H131   C130      1.08335      .   S
    H668   C667      1.08394      .   S
    H704   C703      1.08315      .   S
    H707   C706      1.08358      .   S
    H689   C688      1.08309      .   S
    H671   C670      1.08363      .   S
    C112   C111      1.40390      .   S
    C166   C165      1.40766      .   S
    C145   C144      1.40757      .   S
    C127   C126      1.40365      .   S
    C148   C147      1.40604      .   S
    C685   C684      1.40429      .   S
    C652   C651      1.40674      .   S
    C109   C108      1.40647      .   S
    C130   C129      1.40235      .   S
    C163   C162      1.40468      .   S
    C667   C666      1.40429      .   S
    C703   C702      1.40366      .   S
    C649   C648      1.40426      .   S
    C706   C705      1.40326      .   S
    C688   C687      1.40963      .   S
    C670   C669      1.40258      .   S
    C111   C183      1.40403      .   S
    C165   C183      1.40585      .   S
    C144   C201      1.40655      .   S
    C126   C198      1.40530      .   S
    C651   C723      1.40526      .   S
    C147   C198      1.40589      .   S
    C129   C201      1.40415      .   S
    C684   C738      1.40569      .   S
    C702   C723      1.40339      .   S
    C108   C180      1.40573      .   S
    C162   C180      1.40464      .   S
    C666   C738      1.40457      .   S
    C687   C741      1.40643      .   S
    C648   C720      1.40459      .   S
    C669   C741      1.40475      .   S
    C705   C720      1.40481      .   S
    C183   H184      1.08289      .   S
    C201   H202      1.08276      .   S
    C198   H199      1.08297      .   S
    C723   H724      1.08304      .   S
    C180   H181      1.08314      .   S
    C738   H739      1.08342      .   S
    C741   H742      1.08310      .   S
    C720   H721      1.08286      .   S
    H137   C136      1.08342      .   S
    H170   C169      1.08311      .   S
    H116   C115      1.08315      .   S
    H155   C154      1.08360      .   S
    H710   C709      1.08329      .   S
    H677   C676      1.08378      .   S
    H659   C658      1.08309      .   S
    H134   C133      1.08346      .   S
    H152   C151      1.08334      .   S
    H674   C673      1.08275      .   S
    H119   C118      1.08361      .   S
    H692   C691      1.08343      .   S
    H656   C655      1.08316      .   S
    H713   C712      1.08336      .   S
    H173   C172      1.08317      .   S
    H695   C694      1.08326      .   S
    C136   C135      1.40294      .   S
    C136   C209      1.40286      .   S
    C169   C168      1.40460      .   S
    C169   C197      1.40460      .   S
    C115   C114      1.40409      .   S
    C115   C188      1.40465      .   S
    C154   C153      1.40697      .   S
    C154   C212      1.40551      .   S
    C676   C675      1.40393      .   S
    C676   C749      1.40310      .   S
    C709   C708      1.40477      .   S
    C709   C737      1.40335      .   S
    C151   C150      1.40612      .   S
    C151   C215      1.40568      .   S
    C133   C132      1.40575      .   S
    C133   C206      1.40489      .   S
    C658   C657      1.40767      .   S
    C658   C731      1.40629      .   S
    C673   C672      1.40670      .   S
    C673   C746      1.40467      .   S
    C118   C117      1.40332      .   S
    C118   C191      1.40369      .   S
    C691   C690      1.40624      .   S
    C691   C755      1.40400      .   S
    C655   C654      1.40482      .   S
    C655   C728      1.40560      .   S
    C712   C711      1.40577      .   S
    C712   C734      1.40467      .   S
    C694   C693      1.40392      .   S
    C694   C752      1.40375      .   S
    C172   C171      1.40388      .   S
    C172   C194      1.40304      .   S
    C168   C195      1.40529      .   S
    C135   C207      1.40483      .   S
    C209   C157      1.40479      .   S
    C114   C186      1.40551      .   S
    C153   C210      1.40671      .   S
    C197   C124      1.40684      .   S
    C188   C178      1.40564      .   S
    C675   C747      1.40509      .   S
    C708   C735      1.40633      .   S
    C212   C139      1.40454      .   S
    C150   C213      1.40505      .   S
    C132   C204      1.40517      .   S
    C749   C697      1.40458      .   S
    C737   C664      1.40216      .   S
    C657   C729      1.40706      .   S
    C206   C160      1.40607      .   S
    C731   C715      1.40202      .   S
    C117   C189      1.40372      .   S
    C215   C142      1.40508      .   S
    C672   C744      1.40633      .   S
    C171   C192      1.40716      .   S
    C711   C732      1.40875      .   S
    C690   C753      1.40706      .   S
    C693   C750      1.40517      .   S
    C654   C726      1.40465      .   S
    C746   C700      1.40141      .   S
    C191   C175      1.40537      .   S
    C755   C682      1.40262      .   S
    C728   C718      1.40573      .   S
    C752   C679      1.40270      .   S
    C734   C661      1.40396      .   S
    C194   C121      1.40207      .   S
    C195   H196      1.08349      .   S
    C195   C123      1.40632      .   S
    C186   H187      1.08321      .   S
    C186   C177      1.40510      .   S
    C207   H208      1.08289      .   S
    C207   C156      1.40742      .   S
    C157   H158      1.08320      .   S
    C157   C156      1.40677      .   S
    C124   H125      1.08318      .   S
    C124   C123      1.40695      .   S
    C178   H179      1.08352      .   S
    C178   C177      1.40690      .   S
    C210   H211      1.08302      .   S
    C210   C138      1.40530      .   S
    C213   H214      1.08329      .   S
    C213   C141      1.40353      .   S
    C747   H748      1.08334      .   S
    C747   C696      1.40548      .   S
    C139   H140      1.08328      .   S
    C139   C138      1.40422      .   S
    C204   H205      1.08289      .   S
    C204   C159      1.40576      .   S
    C735   H736      1.08319      .   S
    C735   C663      1.40380      .   S
    C697   H698      1.08344      .   S
    C697   C696      1.40524      .   S
    C160   H161      1.08377      .   S
    C160   C159      1.40699      .   S
    C729   H730      1.08330      .   S
    C729   C714      1.40467      .   S
    C142   H143      1.08337      .   S
    C142   C141      1.40484      .   S
    C189   H190      1.08314      .   S
    C189   C174      1.40567      .   S
    C664   H665      1.08368      .   S
    C664   C663      1.40218      .   S
    C715   H716      1.08353      .   S
    C715   C714      1.40245      .   S
    C750   H751      1.08295      .   S
    C750   C678      1.40470      .   S
    C192   H193      1.08306      .   S
    C192   C120      1.40704      .   S
    C744   H745      1.08289      .   S
    C744   C699      1.40310      .   S
    C753   H754      1.08318      .   S
    C753   C681      1.40442      .   S
    C732   H733      1.08354      .   S
    C732   C660      1.40781      .   S
    C726   H727      1.08301      .   S
    C726   C717      1.40533      .   S
    C175   H176      1.08288      .   S
    C175   C174      1.40670      .   S
    C700   H701      1.08312      .   S
    C700   C699      1.40222      .   S
    C679   H680      1.08335      .   S
    C679   C678      1.40409      .   S
    C682   H683      1.08261      .   S
    C682   C681      1.40347      .   S
    C718   H719      1.08346      .   S
    C718   C717      1.40604      .   S
    C121   H122      1.08359      .   S
    C121   C120      1.40343      .   S
    C661   H662      1.08322      .   S
    C661   C660      1.40461      .   S
    C48    C49       1.40246      .   S
    C48    C99       1.40690      .   S
    C30    C31       1.40465      .   S
    C30    C102      1.40542      .   S
    C15    C16       1.40240      .   S
    C15    C87       1.40511      .   S
    H50    C49       1.08351      .   S
    C69    C70       1.40301      .   S
    C69    C78       1.40614      .   S
    H32    C31       1.08339      .   S
    C66    C67       1.40349      .   S
    C66    C81       1.40475      .   S
    H17    C16       1.08355      .   S
    C12    C13       1.40744      .   S
    C12    C84       1.40567      .   S
    C789   C790      1.40314      .   S
    C789   C861      1.40260      .   S
    C825   C826      1.40258      .   S
    C825   C834      1.40478      .   S
    H68    C67       1.08292      .   S
    H100   C99       1.08350      .   S
    C771   C772      1.40369      .   S
    C771   C843      1.40411      .   S
    C804   C805      1.40393      .   S
    C804   C855      1.40328      .   S
    H103   C102      1.08331      .   S
    H71    C70       1.08356      .   S
    H88    C87       1.08284      .   S
    C51    C52       1.40561      .   S
    C51    C96       1.40508      .   S
    H827   C826      1.08349      .   S
    C822   C823      1.40191      .   S
    C822   C837      1.40184      .   S
    C33    C34       1.40704      .   S
    C33    C105      1.40480      .   S
    H791   C790      1.08287      .   S
    H14    C13       1.08349      .   S
    H806   C805      1.08330      .   S
    H79    C78       1.08309      .   S
    H53    C52       1.08322      .   S
    H82    C81       1.08342      .   S
    H773   C772      1.08272      .   S
    C768   C769      1.40386      .   S
    C768   C840      1.40404      .   S
    H85    C84       1.08329      .   S
    C807   C808      1.40540      .   S
    C807   C852      1.40670      .   S
    C786   C787      1.40762      .   S
    C786   C858      1.40584      .   S
    H824   C823      1.08331      .   S
    H770   C769      1.08300      .   S
    H862   C861      1.08372      .   S
    H844   C843      1.08295      .   S
    H35    C34       1.08330      .   S
    H809   C808      1.08295      .   S
    H106   C105      1.08276      .   S
    H835   C834      1.08327      .   S
    H856   C855      1.08317      .   S
    H838   C837      1.08285      .   S
    H97    C96       1.08311      .   S
    H788   C787      1.08344      .   S
    C49    C101      1.40256      .   S
    H859   C858      1.08295      .   S
    C31    C104      1.40609      .   S
    H853   C852      1.08265      .   S
    H841   C840      1.08317      .   S
    C99    C27       1.40887      .   S
    C16    C89       1.40216      .   S
    C102   C45       1.40658      .   S
    C87    C60       1.40853      .   S
    C70    C80       1.40368      .   S
    C67    C83       1.40399      .   S
    C78    C6        1.40860      .   S
    C826   C836      1.40227      .   S
    C13    C86       1.40543      .   S
    C790   C863      1.40292      .   S
    C81    C9        1.40585      .   S
    C84    C63       1.40450      .   S
    C805   C857      1.40437      .   S
    C52    C98       1.40427      .   S
    C861   C798      1.40514      .   S
    C772   C845      1.40533      .   S
    C823   C839      1.40221      .   S
    C834   C762      1.40692      .   S
    C843   C816      1.40595      .   S
    C96    C24       1.40471      .   S
    C855   C783      1.40579      .   S
    C34    C107      1.40671      .   S
    C105   C42       1.40381      .   S
    C837   C765      1.40566      .   S
    C769   C842      1.40486      .   S
    C808   C854      1.40418      .   S
    C787   C860      1.40795      .   S
    C858   C801      1.40513      .   S
    C852   C780      1.40655      .   S
    C840   C819      1.40570      .   S
    C101   C28       1.40529      .   S
    C104   C46       1.40657      .   S
    C27    C28       1.40808      .   S
    C89    C61       1.40518      .   S
    C45    C46       1.40722      .   S
    C80    C7        1.40585      .   S
    C60    C61       1.40791      .   S
    C83    C10       1.40553      .   S
    C6     C7        1.40776      .   S
    C836   C763      1.40435      .   S
    C86    C64       1.40313      .   S
    C98    C25       1.40399      .   S
    C863   C799      1.40554      .   S
    C9     C10       1.40671      .   S
    C63    C64       1.40402      .   S
    C857   C784      1.40571      .   S
    C839   C766      1.40523      .   S
    C798   C799      1.40757      .   S
    C24    C25       1.40494      .   S
    C762   C763      1.40569      .   S
    C107   C43       1.40544      .   S
    C765   C766      1.40766      .   S
    C42    C43       1.40412      .   S
    C845   C817      1.40597      .   S
    C854   C781      1.40255      .   S
    C783   C784      1.40675      .   S
    C842   C820      1.40722      .   S
    C816   C817      1.40584      .   S
    C860   C802      1.40627      .   S
    C801   C802      1.40605      .   S
    C780   C781      1.40395      .   S
    C819   C820      1.40742      .   S
    C28    H29       1.08301      .   S
    C46    H47       1.08370      .   S
    C61    H62       1.08326      .   S
    C7     H8        1.08324      .   S
    C10    H11       1.08356      .   S
    C64    H65       1.08402      .   S
    C25    H26       1.08358      .   S
    C763   H764      1.08343      .   S
    C799   H800      1.08279      .   S
    C766   H767      1.08350      .   S
    C784   H785      1.08391      .   S
    C43    H44       1.08360      .   S
    C817   H818      1.08358      .   S
    C781   H782      1.08390      .   S
    C802   H803      1.08352      .   S
    C820   H821      1.08334      .   S
    H91    C90       1.08297      .   S
    H73    C72       1.08337      .   S
    H76    C75       1.08375      .   S
    H850   C849      1.08274      .   S
    H94    C93       1.08293      .   S
    H832   C831      1.08309      .   S
    H829   C828      1.08351      .   S
    H847   C846      1.08321      .   S
    C90    C36       1.40588      .   S
    C90    C18       1.40688      .   S
    C72    C57       1.40854      .   S
    C72    C0        1.40511      .   S
    C75    C54       1.40406      .   S
    C75    C3        1.40827      .   S
    C93    C39       1.40459      .   S
    C93    C21       1.40660      .   S
    C849   C777      1.40580      .   S
    C849   C792      1.40818      .   S
    C831   C759      1.40534      .   S
    C831   C813      1.40549      .   S
    C828   C810      1.40388      .   S
    C828   C756      1.40678      .   S
    C846   C774      1.40524      .   S
    C846   C795      1.40734      .   S
    C36    C37       1.40427      .   S
    C18    C19       1.40773      .   S
    C57    C58       1.40679      .   S
    C0     C1        1.40305      .   S
    C54    C55       1.40155      .   S
    C3     C4        1.40983      .   S
    C777   C778      1.40164      .   S
    C39    C40       1.40366      .   S
    C21    C22       1.40688      .   S
    C792   C793      1.40526      .   S
    C810   C811      1.40219      .   S
    C759   C760      1.40461      .   S
    C813   C814      1.40714      .   S
    C774   C775      1.40243      .   S
    C756   C757      1.40789      .   S
    C795   C796      1.40762      .   S
    C58    H59       1.08332      .   S
    C58    C74       1.40544      .   S
    C1     H2        1.08340      .   S
    C1     C74       1.40257      .   S
    C37    H38       1.08282      .   S
    C37    C92       1.40672      .   S
    C19    H20       1.08346      .   S
    C19    C92       1.40638      .   S
    C55    H56       1.08323      .   S
    C55    C77       1.40273      .   S
    C4     H5        1.08296      .   S
    C4     C77       1.40694      .   S
    C40    H41       1.08337      .   S
    C40    C95       1.40377      .   S
    C778   H779      1.08338      .   S
    C778   C851      1.40066      .   S
    C22    H23       1.08365      .   S
    C22    C95       1.40475      .   S
    C793   H794      1.08354      .   S
    C793   C851      1.40348      .   S
    C811   H812      1.08309      .   S
    C811   C830      1.40351      .   S
    C814   H815      1.08324      .   S
    C814   C833      1.40651      .   S
    C760   H761      1.08354      .   S
    C760   C833      1.40449      .   S
    C757   H758      1.08331      .   S
    C757   C830      1.40645      .   S
    C775   H776      1.08376      .   S
    C775   C848      1.40251      .   S
    C796   H797      1.08299      .   S
    C796   C848      1.40637      .   S
