# CIF file generated by openbabel 2.4.90, see http://openbabel.sf.net
data_I
_chemical_name_common ''
_cell_length_a 18.5949
_cell_length_b 18.5949
_cell_length_c 18.595
_cell_angle_alpha 89.9998
_cell_angle_beta 120
_cell_angle_gamma 120
_space_group_name_H-M_alt 'P 1'
_space_group_name_Hall 'P 1'
loop_
    _symmetry_equiv_pos_as_xyz
    x,y,z
loop_
    _atom_site_label
    _atom_site_type_symbol
    _atom_site_fract_x
    _atom_site_fract_y
    _atom_site_fract_z
    _atom_site_occupancy
    C0      C    0.64312   0.38652   0.61348   1.000
    C1      C    0.35689   0.38652   0.61348   1.000
    H2      H    0.76270   0.73462   0.26539   1.000
    H3      H    0.76271   0.02809   0.49732   1.000
    H4      H    0.23730   0.73462   0.26538   1.000
    H5      H    0.23730   0.50269   0.97192   1.000
    H6      H    0.23729   0.97191   0.50268   1.000
    H7      H    0.46923   0.73461   0.97192   1.000
    H8      H    0.53077   0.50269   0.26538   1.000
    H9      H    0.46923   0.73462   0.49731   1.000
    H10     H    0.53078   0.02809   0.26538   1.000
    H11     H    0.76270   0.02808   0.26538   1.000
    H12     H    0.23730   0.73462   0.97192   1.000
    H13     H    0.23731   0.50269   0.26538   1.000
    H14     H    0.76270   0.73462   0.49732   1.000
    H15     H    0.23729   0.26538   0.50268   1.000
    H16     H    0.23730   0.97192   0.73462   1.000
    H17     H    0.76270   0.26538   0.02809   1.000
    H18     H    0.76269   0.49731   0.73462   1.000
    H19     H    0.53076   0.26538   0.50269   1.000
    H20     H    0.46923   0.49732   0.73462   1.000
    H21     H    0.53077   0.26539   0.02809   1.000
    H22     H    0.46922   0.97191   0.73462   1.000
    H23     H    0.76270   0.26538   0.73462   1.000
    H24     H    0.76269   0.49731   0.02809   1.000
    H25     H    0.23729   0.26538   0.73462   1.000
    C26     C    0.72985   0.70015   0.29985   1.000
    C27     C    0.72985   0.02970   0.43001   1.000
    C28     C    0.27014   0.70015   0.29985   1.000
    C29     C    0.27014   0.56999   0.97030   1.000
    C30     C    0.40030   0.70015   0.97030   1.000
    C31     C    0.59970   0.57000   0.29985   1.000
    C32     C    0.40030   0.70015   0.43001   1.000
    C33     C    0.59969   0.02970   0.29985   1.000
    C34     C    0.72985   0.02970   0.29985   1.000
    C35     C    0.27014   0.70015   0.97030   1.000
    C36     C    0.27015   0.57000   0.29985   1.000
    C37     C    0.72985   0.70015   0.43001   1.000
    C38     C    0.27015   0.29985   0.56999   1.000
    C39     C    0.27015   0.97030   0.70015   1.000
    C40     C    0.72986   0.29985   0.02970   1.000
    C41     C    0.72985   0.43000   0.70015   1.000
    C42     C    0.59970   0.29985   0.56999   1.000
    C43     C    0.40030   0.43000   0.70015   1.000
    C44     C    0.59970   0.29985   0.02970   1.000
    C45     C    0.40031   0.97030   0.70015   1.000
    C46     C    0.27015   0.97030   0.56999   1.000
    C47     C    0.72986   0.29985   0.70015   1.000
    C48     C    0.72986   0.43001   0.02970   1.000
    C49     C    0.27015   0.29985   0.70015   1.000
    C50     C    0.77303   0.74340   0.38652   1.000
    C51     C    0.77303   0.02963   0.38652   1.000
    C52     C    0.22696   0.61348   0.25660   1.000
    C53     C    0.22696   0.61348   0.97037   1.000
    C54     C    0.35688   0.61348   0.97037   1.000
    C55     C    0.64311   0.61348   0.25660   1.000
    C56     C    0.35688   0.74340   0.38652   1.000
    C57     C    0.64311   0.02963   0.38652   1.000
    C58     C    0.64311   0.02963   0.25660   1.000
    C59     C    0.35688   0.74340   0.97037   1.000
    C60     C    0.35688   0.61348   0.38652   1.000
    C61     C    0.64311   0.61348   0.38652   1.000
    C62     C    0.22697   0.25660   0.61348   1.000
    C63     C    0.22697   0.97037   0.61348   1.000
    C64     C    0.77304   0.38652   0.02963   1.000
    C65     C    0.77304   0.38652   0.74341   1.000
    C66     C    0.64312   0.25660   0.02963   1.000
    C67     C    0.35689   0.97037   0.74340   1.000
    C68     C    0.35689   0.97037   0.61348   1.000
    C69     C    0.64312   0.25660   0.61348   1.000
    C70     C    0.64312   0.38652   0.02963   1.000
    C71     C    0.35689   0.38652   0.74341   1.000
loop_
    _geom_bond_atom_site_label_1
    _geom_bond_atom_site_label_2
    _geom_bond_distance
    _geom_bond_site_symmetry_2
    _ccdc_geom_bond_type
    H17    C40       1.09286      .   S
    H21    C44       1.09301      .   S
    H24    C48       1.09269      .   S
    C64    C40       1.39608      .   S
    C64    C48       1.39609      .   S
    C70    C44       1.39608      .   S
    C70    C48       1.39608      .   S
    C66    C40       1.39608      .   S
    C66    C44       1.39609      .   S
    C52    C28       1.39608      .   S
    C52    C36       1.39603      .   S
    C55    C31       1.39592      .   S
    C55    C26       1.39607      .   S
    C58    C33       1.39609      .   S
    C58    C34       1.39608      .   S
    H11    C34       1.09307      .   S
    H10    C33       1.09269      .   S
    H13    C36       1.09297      .   S
    H8     C31       1.09290      .   S
    H4     C28       1.09297      .   S
    H2     C26       1.09291      .   S
    C28    C56       1.39608      .   S
    C31    C61       1.39609      .   S
    C33    C57       1.39609      .   S
    C26    C50       1.39609      .   S
    C34    C51       1.39609      .   S
    C36    C60       1.39603      .   S
    C57    C27       1.39608      .   S
    C60    C32       1.39608      .   S
    C61    C37       1.39607      .   S
    C51    C27       1.39609      .   S
    C50    C37       1.39608      .   S
    C56    C32       1.39608      .   S
    C37    H14       1.09292      .   S
    C32    H9        1.09281      .   S
    C27    H3        1.09286      .   S
    H6     C46       1.09286      .   S
    H15    C38       1.09286      .   S
    H19    C42       1.09286      .   S
    C46    C68       1.39608      .   S
    C46    C63       1.39609      .   S
    C38    C1        1.39607      .   S
    C38    C62       1.39608      .   S
    C42    C0        1.39608      .   S
    C42    C69       1.39608      .   S
    C0     C41       1.39603      .   S
    C1     C43       1.39609      .   S
    C62    C49       1.39609      .   S
    C69    C47       1.39608      .   S
    C68    C45       1.39609      .   S
    C63    C39       1.39609      .   S
    C49    H25       1.09317      .   S
    C49    C71       1.39607      .   S
    C43    H20       1.09301      .   S
    C43    C71       1.39608      .   S
    C45    H22       1.09269      .   S
    C45    C67       1.39609      .   S
    C41    H18       1.09297      .   S
    C41    C65       1.39608      .   S
    C47    H23       1.09297      .   S
    C47    C65       1.39614      .   S
    C39    H16       1.09307      .   S
    C39    C67       1.39608      .   S
    C30    C59       1.39609      .   S
    C30    C54       1.39608      .   S
    C30    H7        1.09291      .   S
    C35    C53       1.39608      .   S
    C35    C59       1.39608      .   S
    C35    H12       1.09291      .   S
    C29    C53       1.39609      .   S
    C29    C54       1.39608      .   S
    C29    H5        1.09275      .   S
