# CIF file generated by openbabel 2.4.90, see http://openbabel.sf.net
data_I
_chemical_name_common ''
_cell_length_a 11.6884
_cell_length_b 5.5643
_cell_length_c 22.8159
_cell_angle_alpha 90
_cell_angle_beta 100.691
_cell_angle_gamma 90
_space_group_name_H-M_alt 'P 1'
_space_group_name_Hall 'P 1'
loop_
    _symmetry_equiv_pos_as_xyz
    x,y,z
loop_
    _atom_site_label
    _atom_site_type_symbol
    _atom_site_fract_x
    _atom_site_fract_y
    _atom_site_fract_z
    _atom_site_occupancy
    S0      S    0.10145   0.96454   0.39330   1.000
    O1      O    0.08446   0.22059   0.38950   1.000
    O2      O    0.00494   0.80562   0.37030   1.000
    C3      C    0.14670   0.89090   0.46929   1.000
    C4      C    0.20595   0.06200   0.50775   1.000
    H5      H    0.22780   0.21110   0.49280   1.000
    C6      C    0.23276   0.01220   0.56837   1.000
    H7      H    0.27220   0.12830   0.59530   1.000
    C8      C    0.20170   0.79140   0.58960   1.000
    C9      C    0.14677   0.61880   0.55025   1.000
    H10     H    0.12870   0.46630   0.56490   1.000
    C11     C    0.11802   0.66700   0.48962   1.000
    H12     H    0.07960   0.54990   0.46260   1.000
    C13     C    0.21873   0.89080   0.35811   1.000
    C14     C    0.30779   0.05910   0.35955   1.000
    H15     H    0.30710   0.20510   0.38110   1.000
    C16     C    0.39763   0.00980   0.32897   1.000
    H17     H    0.45760   0.12450   0.32850   1.000
    C18     C    0.39952   0.79180   0.29902   1.000
    C19     C    0.31163   0.62320   0.29972   1.000
    H20     H    0.31460   0.47320   0.28010   1.000
    C21     C    0.21940   0.67210   0.32884   1.000
    H22     H    0.15860   0.55880   0.32870   1.000
    S23     S    0.39855   0.46454   0.10670   1.000
    O24     O    0.41554   0.72059   0.11050   1.000
    O25     O    0.49506   0.30562   0.12970   1.000
    C26     C    0.35330   0.39090   0.03071   1.000
    C27     C    0.29405   0.56200   0.99225   1.000
    H28     H    0.27220   0.71110   0.00720   1.000
    C29     C    0.26724   0.51220   0.93163   1.000
    H30     H    0.22780   0.62830   0.90470   1.000
    C31     C    0.29830   0.29140   0.91040   1.000
    C32     C    0.35323   0.11880   0.94975   1.000
    H33     H    0.37130   0.96630   0.93510   1.000
    C34     C    0.38198   0.16700   0.01038   1.000
    H35     H    0.42040   0.04990   0.03740   1.000
    C36     C    0.28127   0.39080   0.14189   1.000
    C37     C    0.19221   0.55910   0.14045   1.000
    H38     H    0.19290   0.70510   0.11890   1.000
    C39     C    0.10237   0.50980   0.17103   1.000
    H40     H    0.04240   0.62450   0.17150   1.000
    C41     C    0.10048   0.29180   0.20098   1.000
    C42     C    0.18837   0.12320   0.20028   1.000
    H43     H    0.18540   0.97320   0.21990   1.000
    C44     C    0.28060   0.17210   0.17116   1.000
    H45     H    0.34140   0.05880   0.17130   1.000
    S46     S    0.89855   0.03546   0.60670   1.000
    O47     O    0.91554   0.77941   0.61050   1.000
    O48     O    0.99506   0.19438   0.62970   1.000
    C49     C    0.85330   0.10910   0.53071   1.000
    C50     C    0.79405   0.93800   0.49225   1.000
    H51     H    0.77220   0.78890   0.50720   1.000
    C52     C    0.76724   0.98780   0.43163   1.000
    H53     H    0.72780   0.87170   0.40470   1.000
    C54     C    0.79830   0.20860   0.41040   1.000
    C55     C    0.85323   0.38120   0.44975   1.000
    H56     H    0.87130   0.53370   0.43510   1.000
    C57     C    0.88198   0.33300   0.51038   1.000
    H58     H    0.92040   0.45010   0.53740   1.000
    C59     C    0.78127   0.10920   0.64189   1.000
    C60     C    0.69221   0.94090   0.64045   1.000
    H61     H    0.69290   0.79490   0.61890   1.000
    C62     C    0.60237   0.99020   0.67103   1.000
    H63     H    0.54240   0.87550   0.67150   1.000
    C64     C    0.60048   0.20820   0.70098   1.000
    C65     C    0.68837   0.37680   0.70028   1.000
    H66     H    0.68540   0.52680   0.71990   1.000
    C67     C    0.78060   0.32790   0.67116   1.000
    H68     H    0.84140   0.44120   0.67130   1.000
    S69     S    0.60145   0.53546   0.89330   1.000
    O70     O    0.58446   0.27941   0.88950   1.000
    O71     O    0.50494   0.69438   0.87030   1.000
    C72     C    0.64670   0.60910   0.96929   1.000
    C73     C    0.70595   0.43800   0.00775   1.000
    H74     H    0.72780   0.28890   0.99280   1.000
    C75     C    0.73276   0.48780   0.06837   1.000
    H76     H    0.77220   0.37170   0.09530   1.000
    C77     C    0.70170   0.70860   0.08960   1.000
    C78     C    0.64677   0.88120   0.05025   1.000
    H79     H    0.62870   0.03370   0.06490   1.000
    C80     C    0.61802   0.83300   0.98962   1.000
    H81     H    0.57960   0.95010   0.96260   1.000
    C82     C    0.71873   0.60920   0.85811   1.000
    C83     C    0.80779   0.44090   0.85955   1.000
    H84     H    0.80710   0.29490   0.88110   1.000
    C85     C    0.89763   0.49020   0.82897   1.000
    H86     H    0.95760   0.37550   0.82850   1.000
    C87     C    0.89952   0.70820   0.79902   1.000
    C88     C    0.81163   0.87680   0.79972   1.000
    H89     H    0.81460   0.02680   0.78010   1.000
    C90     C    0.71940   0.82790   0.82884   1.000
    H91     H    0.65860   0.94120   0.82870   1.000
loop_
    _geom_bond_atom_site_label_1
    _geom_bond_atom_site_label_2
    _geom_bond_distance
    _geom_bond_site_symmetry_2
    _ccdc_geom_bond_type
    H28    C27       0.94984  1_554   S
    C73    C75       1.38822      .   S
    C73    C72       1.38944  1_554   S
    C73    H74       0.94984  1_554   S
    C34    C26       1.39189      .   S
    C34    H35       0.95056      .   S
    C34    C32       1.38780  1_554   S
    C26    S23       1.76448      .   S
    C26    C27       1.38944  1_554   S
    C78    H79       0.95004  1_565   S
    C78    C77       1.38808      .   S
    C78    C80       1.38780  1_554   S
    C75    C77       1.39324      .   S
    C75    H76       0.94989      .   S
    S23    O24       1.43890      .   S
    S23    O25       1.45265      .   S
    S23    C36       1.76082      .   S
    H38    C37       0.95040      .   S
    C37    C36       1.39606      .   S
    C37    C39       1.39161      .   S
    C36    C44       1.38884      .   S
    C39    H40       0.94951      .   S
    C39    C41       1.39443      .   S
    C44    H45       0.94955      .   S
    C44    C42       1.39403      .   S
    C42    C41       1.39348      .   S
    C42    H43       0.95078  1_545   S
    H20    C19       0.95078      .   S
    C18    C19       1.39348      .   S
    C18    C16       1.39443  1_565   S
    C19    C21       1.39403      .   S
    H17    C16       0.94951      .   S
    H22    C21       0.94955      .   S
    C21    C13       1.38884      .   S
    C16    C14       1.39161      .   S
    C13    C14       1.39606  1_565   S
    C13    S0        1.76082      .   S
    C14    H15       0.95040      .   S
    O2     S0        1.45265      .   S
    O1     S0        1.43890  1_545   S
    S0     C3        1.76448      .   S
    H53    C52       0.94989      .   S
    C54    C52       1.39324  1_545   S
    C54    C55       1.38808      .   S
    C52    C50       1.38822      .   S
    H56    C55       0.95004      .   S
    C55    C57       1.38780      .   S
    H12    C11       0.95056      .   S
    C3     C11       1.39189      .   S
    C3     C4        1.38944  1_565   S
    C11    C9        1.38780      .   S
    C50    H51       0.94984      .   S
    C50    C49       1.38944  1_565   S
    H5     C4        0.94984      .   S
    C4     C6        1.38822      .   S
    C57    C49       1.39189      .   S
    C57    H58       0.95056      .   S
    C49    S46       1.76448      .   S
    C9     H10       0.95004      .   S
    C9     C8        1.38808      .   S
    C6     C8        1.39324  1_545   S
    C6     H7        0.94989      .   S
    S46    O47       1.43890  1_545   S
    S46    O48       1.45265      .   S
    S46    C59       1.76082      .   S
    H61    C60       0.95040      .   S
    C60    C59       1.39606  1_565   S
    C60    C62       1.39161      .   S
    C59    C67       1.38884      .   S
    C62    H63       0.94951      .   S
    C62    C64       1.39443  1_565   S
    C67    H68       0.94955      .   S
    C67    C65       1.39403      .   S
    C65    C64       1.39348      .   S
    C65    H66       0.95078      .   S
    H89    C88       0.95078  1_545   S
    C87    C88       1.39348      .   S
    C87    C85       1.39443      .   S
    C88    C90       1.39403      .   S
    H86    C85       0.94951      .   S
    H91    C90       0.94955      .   S
    C90    C82       1.38884      .   S
    C85    C83       1.39161      .   S
    C82    C83       1.39606      .   S
    C82    S69       1.76082      .   S
    C83    H84       0.95040      .   S
    O71    S69       1.45265      .   S
    O70    S69       1.43890      .   S
    S69    C72       1.76448      .   S
    H30    C29       0.94989      .   S
    C31    C29       1.39324      .   S
    C31    C32       1.38808      .   S
    C29    C27       1.38822      .   S
    H33    C32       0.95004  1_565   S
    H81    C80       0.95056      .   S
    C72    C80       1.39189      .   S
