# CIF file generated by openbabel 2.4.90, see http://openbabel.sf.net
data_I
_chemical_name_common ''
_cell_length_a 71.5169
_cell_length_b 71.4927
_cell_length_c 71.6087
_cell_angle_alpha 89.8315
_cell_angle_beta 90.1248
_cell_angle_gamma 89.8689
_space_group_name_H-M_alt 'P 1'
_space_group_name_Hall 'P 1'
loop_
    _symmetry_equiv_pos_as_xyz
    x,y,z
loop_
    _atom_site_label
    _atom_site_type_symbol
    _atom_site_fract_x
    _atom_site_fract_y
    _atom_site_fract_z
    _atom_site_occupancy
    N0      N    0.30311   0.85678   0.84276   1.000
    N1      N    0.30294   0.84441   0.85635   1.000
    C2      C    0.28860   0.84824   0.86787   1.000
    C3      C    0.27928   0.86393   0.86116   1.000
    C4      C    0.28898   0.86895   0.84519   1.000
    H5      H    0.28540   0.84026   0.88029   1.000
    H6      H    0.28606   0.88062   0.83601   1.000
    N7      N    0.34195   0.80585   0.85773   1.000
    N8      N    0.35539   0.80580   0.84512   1.000
    C9      C    0.36694   0.79128   0.84863   1.000
    C10     C    0.36048   0.78170   0.86421   1.000
    C11     C    0.34460   0.79142   0.86954   1.000
    H12     H    0.37915   0.78796   0.84042   1.000
    H13     H    0.33560   0.78830   0.88122   1.000
    H14     H    0.32894   0.82300   0.83041   1.000
    N15     N    0.35627   0.34348   0.30375   1.000
    H16     H    0.33013   0.32448   0.32959   1.000
    H17     H    0.34643   0.33873   0.34425   1.000
    N18     N    0.35605   0.84478   0.80621   1.000
    N19     N    0.34232   0.85701   0.80578   1.000
    C20     C    0.34538   0.86942   0.79200   1.000
    C21     C    0.36193   0.86476   0.78314   1.000
    C22     C    0.36831   0.84896   0.79257   1.000
    H23     H    0.33621   0.88099   0.78872   1.000
    C24     C    0.79041   0.35011   0.86745   1.000
    C25     C    0.78144   0.36624   0.86135   1.000
    Cu26    Cu   0.32215   0.85570   0.82365   1.000
    Cu27    Cu   0.35713   0.82471   0.82492   1.000
    Cu28    Cu   0.32168   0.82459   0.85831   1.000
    H29     H    0.87881   0.78834   0.33915   1.000
    H30     H    0.83507   0.78919   0.37972   1.000
    H31     H    0.82907   0.82571   0.32905   1.000
    N32     N    0.34397   0.35711   0.30457   1.000
    C33     C    0.34687   0.36883   0.29003   1.000
    C34     C    0.36186   0.36209   0.27955   1.000
    C35     C    0.36730   0.34592   0.28883   1.000
    H36     H    0.33876   0.38134   0.28741   1.000
    H37     H    0.37868   0.33665   0.28536   1.000
    Cu38    Cu   0.32576   0.35797   0.32496   1.000
    Cu39    Cu   0.35820   0.32388   0.32234   1.000
    Cu40    Cu   0.32584   0.32408   0.35797   1.000
    N41     N    0.30692   0.35716   0.34474   1.000
    N42     N    0.30716   0.34383   0.35741   1.000
    C43     C    0.29304   0.34648   0.36945   1.000
    C44     C    0.28321   0.36243   0.36424   1.000
    C45     C    0.29251   0.36881   0.34837   1.000
    H46     H    0.29036   0.33740   0.38121   1.000
    H47     H    0.38102   0.84122   0.78994   1.000
    H48     H    0.28917   0.38103   0.34009   1.000
    N49     N    0.34586   0.30525   0.35609   1.000
    N50     N    0.35811   0.30518   0.34238   1.000
    C51     C    0.37023   0.29102   0.34504   1.000
    C52     C    0.36549   0.28165   0.36128   1.000
    C53     C    0.34989   0.29108   0.36789   1.000
    H54     H    0.38180   0.28794   0.33589   1.000
    H55     H    0.34219   0.28808   0.38050   1.000
    H56     H    0.34281   0.83932   0.84515   1.000
    N57     N    0.85715   0.34606   0.80482   1.000
    N58     N    0.84411   0.35901   0.80503   1.000
    C59     C    0.84722   0.37126   0.79112   1.000
    C60     C    0.86313   0.36582   0.78146   1.000
    C61     C    0.86904   0.34965   0.79067   1.000
    H62     H    0.83849   0.38327   0.78837   1.000
    H63     H    0.88108   0.34112   0.78744   1.000
    Cu64    Cu   0.82435   0.35915   0.82355   1.000
    Cu65    Cu   0.85774   0.32582   0.82325   1.000
    Cu66    Cu   0.82293   0.32620   0.85700   1.000
    N67     N    0.80528   0.35935   0.84279   1.000
    N68     N    0.80474   0.34645   0.85585   1.000
    C69     C    0.79135   0.37168   0.84565   1.000
    H70     H    0.78688   0.34165   0.87946   1.000
    H71     H    0.78876   0.38381   0.83701   1.000
    N72     N    0.84252   0.30687   0.85589   1.000
    N73     N    0.85579   0.30663   0.84313   1.000
    C74     C    0.86702   0.29177   0.84635   1.000
    C75     C    0.86049   0.28218   0.86191   1.000
    C76     C    0.84493   0.29225   0.86751   1.000
    H77     H    0.87905   0.28823   0.83798   1.000
    H78     H    0.83605   0.28930   0.87933   1.000
    H79     H    0.82950   0.32578   0.82879   1.000
    H80     H    0.84449   0.34069   0.84404   1.000
    N81     N    0.85675   0.84623   0.30545   1.000
    N82     N    0.84370   0.85916   0.30580   1.000
    C83     C    0.84661   0.87142   0.29189   1.000
    C84     C    0.86243   0.86610   0.28207   1.000
    C85     C    0.86850   0.84991   0.29117   1.000
    H86     H    0.83778   0.88338   0.28926   1.000
    H87     H    0.88062   0.84150   0.28787   1.000
    Cu88    Cu   0.82402   0.85910   0.32435   1.000
    Cu89    Cu   0.85735   0.82586   0.32389   1.000
    Cu90    Cu   0.82190   0.82579   0.35714   1.000
    N91     N    0.80429   0.85891   0.34287   1.000
    N92     N    0.80346   0.84582   0.35572   1.000
    C93     C    0.78857   0.84906   0.36676   1.000
    C94     C    0.77954   0.86507   0.36044   1.000
    C95     C    0.78999   0.87089   0.34525   1.000
    H96     H    0.78471   0.84041   0.37853   1.000
    H97     H    0.78755   0.88308   0.33667   1.000
    N98     N    0.84178   0.80673   0.35635   1.000
    N99     N    0.85529   0.80660   0.34381   1.000
    C100    C    0.86659   0.79183   0.34729   1.000
    C101    C    0.85983   0.78220   0.36274   1.000
    C102    C    0.84411   0.79217   0.36804   1.000
    H103    H    0.84387   0.84026   0.34479   1.000
    N104    N    0.64188   0.65791   0.30517   1.000
    N105    N    0.65411   0.64420   0.30548   1.000
    C106    C    0.65031   0.63237   0.29138   1.000
    C107    C    0.63478   0.63904   0.28175   1.000
    C108    C    0.62992   0.65534   0.29093   1.000
    H109    H    0.65800   0.61966   0.28862   1.000
    H110    H    0.61832   0.66453   0.28780   1.000
    Cu111   Cu   0.67318   0.64301   0.32485   1.000
    Cu112   Cu   0.64129   0.67731   0.32397   1.000
    Cu113   Cu   0.67494   0.67549   0.35888   1.000
    N114    N    0.69246   0.64244   0.34397   1.000
    N115    N    0.69312   0.65506   0.35727   1.000
    C116    C    0.70762   0.65112   0.36867   1.000
    C117    C    0.71656   0.63515   0.36219   1.000
    C118    C    0.70648   0.63011   0.34645   1.000
    H119    H    0.71124   0.65924   0.38086   1.000
    H120    H    0.70908   0.61831   0.33744   1.000
    N121    N    0.65522   0.69497   0.35773   1.000
    N122    N    0.64273   0.69566   0.34416   1.000
    C123    C    0.63090   0.70991   0.34725   1.000
    C124    C    0.63597   0.71872   0.36364   1.000
    C125    C    0.65157   0.70890   0.36988   1.000
    H126    H    0.61924   0.71343   0.33830   1.000
    H127    H    0.65937   0.71139   0.38257   1.000
    H128    H    0.66962   0.67634   0.33075   1.000
    H129    H    0.65363   0.66181   0.34538   1.000
    N130    N    0.64083   0.15515   0.80714   1.000
    N131    N    0.65506   0.14366   0.80554   1.000
    C132    C    0.65171   0.13196   0.79114   1.000
    C133    C    0.63439   0.13649   0.78330   1.000
    C134    C    0.62806   0.15132   0.79399   1.000
    H135    H    0.66119   0.12103   0.78676   1.000
    H136    H    0.61517   0.15904   0.79238   1.000
    Cu137   Cu   0.67632   0.14525   0.82275   1.000
    Cu138   Cu   0.63963   0.17480   0.82554   1.000
    Cu139   Cu   0.67807   0.18063   0.85406   1.000
    N140    N    0.69498   0.14594   0.84276   1.000
    N141    N    0.69548   0.15978   0.85479   1.000
    C142    C    0.70969   0.15706   0.86679   1.000
    C143    C    0.71873   0.14053   0.86223   1.000
    C144    C    0.70894   0.13386   0.84683   1.000
    H145    H    0.71311   0.16656   0.87798   1.000
    H146    H    0.71172   0.12118   0.83913   1.000
    N147    N    0.65571   0.19667   0.85547   1.000
    N148    N    0.64093   0.19407   0.84480   1.000
    C149    C    0.62772   0.20666   0.84928   1.000
    C150    C    0.63438   0.21777   0.86358   1.000
    C151    C    0.65225   0.21102   0.86715   1.000
    H152    H    0.61428   0.20773   0.84247   1.000
    H153    H    0.66191   0.21592   0.87768   1.000
    H154    H    0.66801   0.17836   0.82681   1.000
    H155    H    0.65773   0.16273   0.84510   1.000
    N156    N    0.14428   0.65580   0.80429   1.000
    N157    N    0.15746   0.64298   0.80449   1.000
    C158    C    0.15491   0.63128   0.79007   1.000
    C159    C    0.13925   0.63694   0.78018   1.000
    C160    C    0.13278   0.65258   0.78970   1.000
    H161    H    0.16369   0.61932   0.78716   1.000
    H162    H    0.12068   0.66103   0.78629   1.000
    Cu163   Cu   0.17684   0.64261   0.82340   1.000
    Cu164   Cu   0.14325   0.67552   0.82321   1.000
    Cu165   Cu   0.17814   0.67469   0.85720   1.000
    N166    N    0.19622   0.64218   0.84235   1.000
    N167    N    0.19669   0.65480   0.85561   1.000
    C168    C    0.21132   0.65124   0.86694   1.000
    C169    C    0.22061   0.63552   0.86037   1.000
    C170    C    0.21058   0.63022   0.84469   1.000
    H171    H    0.21475   0.65943   0.87913   1.000
    H172    H    0.21342   0.61845   0.83569   1.000
    N173    N    0.15820   0.69368   0.85644   1.000
    N174    N    0.14490   0.69411   0.84363   1.000
    C175    C    0.13351   0.70875   0.84714   1.000
    C176    C    0.13999   0.71799   0.86290   1.000
    C177    C    0.15564   0.70794   0.86837   1.000
    H178    H    0.12145   0.71245   0.83878   1.000
    H179    H    0.16446   0.71066   0.88031   1.000
    H180    H    0.17147   0.67576   0.82897   1.000
    H181    H    0.15655   0.66054   0.84396   1.000
    N182    N    0.13827   0.15313   0.30713   1.000
    N183    N    0.15350   0.14365   0.30322   1.000
    C184    C    0.15077   0.13407   0.28728   1.000
    C185    C    0.13281   0.13782   0.28086   1.000
    C186    C    0.12532   0.14997   0.29390   1.000
    H187    H    0.16104   0.12497   0.28094   1.000
    H188    H    0.11137   0.15582   0.29404   1.000
    Cu189   Cu   0.17496   0.14409   0.31995   1.000
    Cu190   Cu   0.13598   0.16806   0.32957   1.000
    Cu191   Cu   0.17751   0.17754   0.35270   1.000
    N192    N    0.19336   0.14294   0.33995   1.000
    N193    N    0.19456   0.15609   0.35267   1.000
    C194    C    0.20876   0.15197   0.36438   1.000
    C195    C    0.21686   0.13520   0.35877   1.000
    C196    C    0.20662   0.12996   0.34317   1.000
    H197    H    0.21279   0.16058   0.37609   1.000
    H198    H    0.20857   0.11764   0.33470   1.000
    N199    N    0.15462   0.19269   0.35598   1.000
    N200    N    0.13875   0.18853   0.34758   1.000
    C201    C    0.12570   0.20118   0.35231   1.000
    C202    C    0.13359   0.21405   0.36439   1.000
    C203    C    0.15203   0.20814   0.36643   1.000
    H204    H    0.11158   0.20114   0.34691   1.000
    H205    H    0.16284   0.21462   0.37474   1.000
    H206    H    0.16340   0.17553   0.32695   1.000
    H207    H    0.15833   0.15841   0.34600   1.000
    N208    N    0.64173   0.34241   0.69350   1.000
    N209    N    0.65434   0.35576   0.69355   1.000
    C210    C    0.65040   0.36775   0.70755   1.000
    C211    C    0.63444   0.36155   0.71674   1.000
    C212    C    0.62945   0.34540   0.70735   1.000
    H213    H    0.65844   0.38013   0.71069   1.000
    H214    H    0.61774   0.33637   0.71033   1.000
    Cu215   Cu   0.67451   0.35608   0.67508   1.000
    Cu216   Cu   0.64164   0.32215   0.67545   1.000
    Cu217   Cu   0.67628   0.32274   0.64200   1.000
    N218    N    0.69349   0.35648   0.65535   1.000
    N219    N    0.69397   0.34318   0.64273   1.000
    C220    C    0.70787   0.34654   0.63065   1.000
    C221    C    0.71674   0.36292   0.63572   1.000
    C222    C    0.70725   0.36885   0.65159   1.000
    H223    H    0.71121   0.33763   0.61897   1.000
    H224    H    0.70995   0.38136   0.65959   1.000
    N225    N    0.65722   0.30311   0.64331   1.000
    N226    N    0.64389   0.30285   0.65598   1.000
    C227    C    0.63272   0.28804   0.65275   1.000
    C228    C    0.63934   0.27853   0.63724   1.000
    C229    C    0.65491   0.28855   0.63170   1.000
    H230    H    0.62057   0.28458   0.66099   1.000
    H231    H    0.66373   0.28572   0.61982   1.000
    H232    H    0.66989   0.32261   0.67025   1.000
    H233    H    0.65468   0.33731   0.65476   1.000
    N234    N    0.64448   0.84553   0.19711   1.000
    N235    N    0.65791   0.85800   0.19663   1.000
    C236    C    0.65575   0.86991   0.21095   1.000
    C237    C    0.64012   0.86470   0.22107   1.000
    C238    C    0.63332   0.84908   0.21182   1.000
    H239    H    0.66476   0.88170   0.21359   1.000
    H240    H    0.62113   0.84094   0.21540   1.000
    Cu241   Cu   0.67665   0.85802   0.17712   1.000
    Cu242   Cu   0.64236   0.82605   0.17828   1.000
    Cu243   Cu   0.67516   0.82621   0.14255   1.000
    N244    N    0.69462   0.85817   0.15691   1.000
    N245    N    0.69410   0.84588   0.14332   1.000
    C246    C    0.70791   0.84976   0.13111   1.000
    C247    C    0.71754   0.86540   0.13738   1.000
    C248    C    0.70867   0.87022   0.15383   1.000
    H249    H    0.71052   0.84195   0.11849   1.000
    H250    H    0.71207   0.88175   0.16290   1.000
    N251    N    0.65489   0.80749   0.14439   1.000
    N252    N    0.64250   0.80748   0.15802   1.000
    C253    C    0.63046   0.79330   0.15536   1.000
    C254    C    0.63537   0.78383   0.13925   1.000
    C255    C    0.65099   0.79327   0.13269   1.000
    H256    H    0.61890   0.79018   0.16452   1.000
    H257    H    0.65885   0.79016   0.12022   1.000
    H258    H    0.67037   0.82510   0.17091   1.000
    H259    H    0.65506   0.84108   0.15695   1.000
    N260    N    0.14330   0.34329   0.19492   1.000
    N261    N    0.15618   0.35636   0.19461   1.000
    C262    C    0.15355   0.36778   0.20939   1.000
    C263    C    0.13820   0.36140   0.21946   1.000
    C264    C    0.13214   0.34586   0.20974   1.000
    H265    H    0.16217   0.37974   0.21262   1.000
    H266    H    0.12026   0.33715   0.21299   1.000
    Cu267   Cu   0.17489   0.35683   0.17466   1.000
    Cu268   Cu   0.14142   0.32390   0.17613   1.000
    Cu269   Cu   0.17464   0.32359   0.14119   1.000
    N270    N    0.19401   0.35602   0.15514   1.000
    N271    N    0.19374   0.34300   0.14222   1.000
    C272    C    0.20823   0.34557   0.13055   1.000
    C273    C    0.21829   0.36108   0.13635   1.000
    C274    C    0.20878   0.36734   0.15206   1.000
    H275    H    0.21108   0.33682   0.11863   1.000
    H276    H    0.21236   0.37921   0.16065   1.000
    N277    N    0.15416   0.30513   0.14258   1.000
    N278    N    0.14158   0.30532   0.15600   1.000
    C279    C    0.12937   0.29131   0.15322   1.000
    C280    C    0.13439   0.28172   0.13722   1.000
    C281    C    0.15025   0.29091   0.13087   1.000
    H282    H    0.11765   0.28837   0.16222   1.000
    H283    H    0.15826   0.28764   0.11853   1.000
    H284    H    0.16965   0.32357   0.16945   1.000
    H285    H    0.15417   0.33861   0.15462   1.000
    N286    N    0.14456   0.84429   0.69434   1.000
    N287    N    0.15762   0.85717   0.69351   1.000
    C288    C    0.15530   0.86920   0.70773   1.000
    C289    C    0.13994   0.86365   0.71813   1.000
    C290    C    0.13349   0.84773   0.70914   1.000
    H291    H    0.16413   0.88117   0.71024   1.000
    H292    H    0.12167   0.83920   0.71304   1.000
    Cu293   Cu   0.17648   0.85716   0.67396   1.000
    Cu294   Cu   0.14287   0.82401   0.67616   1.000
    Cu295   Cu   0.17681   0.82324   0.64178   1.000
    N296    N    0.19575   0.85601   0.65479   1.000
    N297    N    0.19561   0.84264   0.64228   1.000
    C298    C    0.21014   0.84485   0.63066   1.000
    C299    C    0.22011   0.86048   0.63610   1.000
    C300    C    0.21052   0.86725   0.65152   1.000
    H301    H    0.21308   0.83576   0.61901   1.000
    H302    H    0.21405   0.87937   0.65979   1.000
    N303    N    0.15679   0.80470   0.64334   1.000
    N304    N    0.14378   0.80475   0.65636   1.000
    C305    C    0.13232   0.79005   0.65350   1.000
    C306    C    0.13854   0.78029   0.63794   1.000
    C307    C    0.15401   0.79011   0.63192   1.000
    H308    H    0.12047   0.78659   0.66218   1.000
    H309    H    0.16261   0.78696   0.61996   1.000
    H310    H    0.17092   0.82377   0.67030   1.000
    H311    H    0.15555   0.83829   0.65484   1.000
    N312    N    0.35577   0.65388   0.69504   1.000
    N313    N    0.34106   0.64294   0.69533   1.000
    C314    C    0.34277   0.63073   0.70959   1.000
    C315    C    0.35947   0.63426   0.71882   1.000
    C316    C    0.36732   0.64908   0.70911   1.000
    H317    H    0.33255   0.62018   0.71302   1.000
    H318    H    0.38041   0.65599   0.71204   1.000
    Cu319   Cu   0.32106   0.64553   0.67707   1.000
    Cu320   Cu   0.35858   0.67404   0.67704   1.000
    Cu321   Cu   0.32201   0.68092   0.64595   1.000
    N322    N    0.30413   0.64647   0.65580   1.000
    N323    N    0.30447   0.66033   0.64375   1.000
    C324    C    0.29089   0.65784   0.63098   1.000
    C325    C    0.28147   0.64141   0.63517   1.000
    C326    C    0.29035   0.63459   0.65104   1.000
    H327    H    0.28804   0.66745   0.61965   1.000
    H328    H    0.28703   0.62199   0.65870   1.000
    N329    N    0.34453   0.69668   0.64634   1.000
    N330    N    0.35863   0.69381   0.65790   1.000
    C331    C    0.37200   0.70657   0.65448   1.000
    C332    C    0.36610   0.71807   0.64001   1.000
    C333    C    0.34859   0.71131   0.63519   1.000
    H334    H    0.38510   0.70736   0.66197   1.000
    H335    H    0.33942   0.71660   0.62438   1.000
    H336    H    0.33056   0.67839   0.67379   1.000
    H337    H    0.34169   0.66264   0.65625   1.000
    N338    N    0.35702   0.15722   0.19207   1.000
    N339    N    0.34455   0.14375   0.19211   1.000
    C340    C    0.34845   0.13192   0.20632   1.000
    C341    C    0.36426   0.13833   0.21564   1.000
    C342    C    0.36919   0.15447   0.20613   1.000
    H343    H    0.34051   0.11947   0.20949   1.000
    H344    H    0.38081   0.16361   0.20911   1.000
    Cu345   Cu   0.32472   0.14302   0.17326   1.000
    Cu346   Cu   0.35715   0.17725   0.17366   1.000
    Cu347   Cu   0.32180   0.17702   0.14075   1.000
    N348    N    0.30442   0.14361   0.15488   1.000
    N349    N    0.30358   0.15703   0.14233   1.000
    C350    C    0.28863   0.15440   0.13131   1.000
    C351    C    0.27937   0.13846   0.13714   1.000
    C352    C    0.28986   0.13191   0.15218   1.000
    H353    H    0.28495   0.16340   0.11973   1.000
    H354    H    0.28707   0.11964   0.16056   1.000
    N355    N    0.34144   0.19615   0.14131   1.000
    N356    N    0.35492   0.19632   0.15388   1.000
    C357    C    0.36618   0.21102   0.15048   1.000
    C358    C    0.35946   0.22059   0.13499   1.000
    C359    C    0.34374   0.21069   0.12959   1.000
    H360    H    0.37837   0.21445   0.15870   1.000
    H361    H    0.33468   0.21372   0.11788   1.000
    H362    H    0.32874   0.17658   0.16885   1.000
    H363    H    0.34384   0.16252   0.15285   1.000
    N364    N    0.85588   0.65487   0.19673   1.000
    N365    N    0.84064   0.64480   0.19837   1.000
    C366    C    0.84256   0.63293   0.21284   1.000
    C367    C    0.86002   0.63569   0.22082   1.000
    C368    C    0.86806   0.64979   0.21018   1.000
    H369    H    0.83200   0.62302   0.21714   1.000
    H370    H    0.88179   0.65583   0.21195   1.000
    Cu371   Cu   0.82003   0.64757   0.18108   1.000
    Cu372   Cu   0.85857   0.67394   0.17743   1.000
    Cu373   Cu   0.82222   0.67780   0.14534   1.000
    N374    N    0.80420   0.64485   0.15931   1.000
    N375    N    0.80500   0.65663   0.14523   1.000
    C376    C    0.79231   0.65156   0.13227   1.000
    C377    C    0.78317   0.63561   0.13855   1.000
    C378    C    0.79116   0.63181   0.15580   1.000
    H379    H    0.79002   0.65891   0.11924   1.000
    H380    H    0.78764   0.62057   0.16529   1.000
    N381    N    0.84449   0.69410   0.14489   1.000
    N382    N    0.85837   0.69244   0.15696   1.000
    C383    C    0.87133   0.70550   0.15317   1.000
    C384    C    0.86545   0.71596   0.13792   1.000
    C385    C    0.84833   0.70825   0.13305   1.000
    H386    H    0.88401   0.70737   0.16114   1.000
    H387    H    0.83924   0.71261   0.12178   1.000
    H388    H    0.83069   0.67926   0.17316   1.000
    H389    H    0.84126   0.66079   0.15819   1.000
    N390    N    0.85924   0.15555   0.68995   1.000
    N391    N    0.84498   0.14425   0.69238   1.000
    C392    C    0.84788   0.13403   0.70797   1.000
    C393    C    0.86492   0.13923   0.71572   1.000
    C394    C    0.87171   0.15289   0.70377   1.000
    H395    H    0.83825   0.12370   0.71331   1.000
    H396    H    0.88479   0.16035   0.70489   1.000
    Cu397   Cu   0.82424   0.14396   0.67460   1.000
    Cu398   Cu   0.86080   0.17274   0.66888   1.000
    Cu399   Cu   0.81788   0.18251   0.64868   1.000
    N400    N    0.80427   0.14546   0.65599   1.000
    N401    N    0.80184   0.16078   0.64608   1.000
    C402    C    0.78715   0.15858   0.63459   1.000
    C403    C    0.77992   0.14080   0.63721   1.000
    C404    C    0.79116   0.13288   0.65101   1.000
    H405    H    0.78219   0.16925   0.62506   1.000
    H406    H    0.79000   0.11899   0.65689   1.000
    N407    N    0.83978   0.19878   0.64580   1.000
    N408    N    0.85634   0.19472   0.65288   1.000
    C409    C    0.86863   0.20793   0.64756   1.000
    C410    C    0.85936   0.22090   0.63644   1.000
    C411    C    0.84107   0.21460   0.63568   1.000
    H412    H    0.88327   0.20792   0.65134   1.000
    H413    H    0.82953   0.22085   0.62813   1.000
    H414    H    0.83331   0.17688   0.67309   1.000
    H415    H    0.83908   0.16392   0.65125   1.000
    N416    N    0.34601   0.35548   0.69669   1.000
    N417    N    0.35907   0.34257   0.69585   1.000
    C418    C    0.37113   0.34501   0.71006   1.000
    C419    C    0.36535   0.36026   0.72047   1.000
    C420    C    0.34932   0.36657   0.71150   1.000
    H421    H    0.38325   0.33635   0.71255   1.000
    H422    H    0.34066   0.37832   0.71538   1.000
    Cu423   Cu   0.35909   0.32402   0.67617   1.000
    Cu424   Cu   0.32592   0.35702   0.67839   1.000
    Cu425   Cu   0.32570   0.32374   0.64307   1.000
    N426    N    0.35889   0.30539   0.65656   1.000
    N427    N    0.34589   0.30524   0.64358   1.000
    C428    C    0.34931   0.29100   0.63176   1.000
    C429    C    0.36541   0.28168   0.63765   1.000
    C430    C    0.37098   0.29134   0.65349   1.000
    H431    H    0.34072   0.28780   0.61977   1.000
    H432    H    0.38297   0.28850   0.66220   1.000
    N433    N    0.30663   0.34372   0.64515   1.000
    N434    N    0.30682   0.35630   0.65860   1.000
    C435    C    0.29227   0.36802   0.65627   1.000
    C436    C    0.28230   0.36267   0.64059   1.000
    C437    C    0.29186   0.34717   0.63389   1.000
    H438    H    0.28926   0.37969   0.66532   1.000
    H439    H    0.28831   0.33893   0.62178   1.000
    H440    H    0.32569   0.32883   0.67140   1.000
    H441    H    0.34021   0.34457   0.65653   1.000
    N442    N    0.34291   0.85939   0.19407   1.000
    N443    N    0.35651   0.84703   0.19471   1.000
    C444    C    0.36799   0.85121   0.20902   1.000
    C445    C    0.36127   0.86713   0.21792   1.000
    C446    C    0.34523   0.87183   0.20793   1.000
    H447    H    0.38036   0.84326   0.21256   1.000
    H448    H    0.33593   0.88349   0.21034   1.000
    Cu449   Cu   0.35798   0.82696   0.17645   1.000
    Cu450   Cu   0.32335   0.85874   0.17508   1.000
    Cu451   Cu   0.32576   0.82295   0.14255   1.000
    N452    N    0.35913   0.80677   0.15830   1.000
    N453    N    0.34651   0.80539   0.14503   1.000
    C454    C    0.35067   0.79067   0.13414   1.000
    C455    C    0.36688   0.78222   0.14086   1.000
    C456    C    0.37177   0.79292   0.15631   1.000
    H457    H    0.34245   0.78661   0.12216   1.000
    H458    H    0.38373   0.79098   0.16535   1.000
    N459    N    0.30586   0.84209   0.14241   1.000
    N460    N    0.30493   0.85568   0.15479   1.000
    C461    C    0.28999   0.86651   0.15089   1.000
    C462    C    0.28101   0.85944   0.13526   1.000
    C463    C    0.29153   0.84392   0.13031   1.000
    H464    H    0.28597   0.87866   0.15887   1.000
    H465    H    0.28908   0.83473   0.11861   1.000
    H466    H    0.32460   0.83028   0.17041   1.000
    H467    H    0.33903   0.84544   0.15486   1.000
    N468    N    0.84503   0.35825   0.19595   1.000
    N469    N    0.85794   0.34521   0.19667   1.000
    C470    C    0.86966   0.34898   0.21096   1.000
    C471    C    0.86372   0.36538   0.21965   1.000
    C472    C    0.84798   0.37071   0.20961   1.000
    H473    H    0.88168   0.34052   0.21456   1.000
    H474    H    0.83931   0.38288   0.21179   1.000
    Cu475   Cu   0.85823   0.32495   0.17841   1.000
    Cu476   Cu   0.82573   0.35889   0.17702   1.000
    Cu477   Cu   0.82651   0.32455   0.14316   1.000
    N478    N    0.85877   0.30604   0.15883   1.000
    N479    N    0.84644   0.30594   0.14519   1.000
    C480    C    0.85030   0.29165   0.13360   1.000
    C481    C    0.86594   0.28220   0.14026   1.000
    C482    C    0.87089   0.29181   0.15634   1.000
    H483    H    0.84233   0.28852   0.12117   1.000
    H484    H    0.88255   0.28883   0.16548   1.000
    N485    N    0.80750   0.34469   0.14373   1.000
    N486    N    0.80726   0.35756   0.15688   1.000
    C487    C    0.79316   0.36955   0.15357   1.000
    C488    C    0.78398   0.36418   0.13747   1.000
    C489    C    0.79343   0.34825   0.13162   1.000
    H490    H    0.78991   0.38142   0.16226   1.000
    H491    H    0.79053   0.34008   0.11928   1.000
    H492    H    0.82530   0.33035   0.17110   1.000
    H493    H    0.84130   0.34507   0.15662   1.000
    N494    N    0.84335   0.85759   0.69246   1.000
    N495    N    0.85611   0.84435   0.69332   1.000
    C496    C    0.86786   0.84811   0.70759   1.000
    C497    C    0.86212   0.86460   0.71610   1.000
    C498    C    0.84648   0.87011   0.70604   1.000
    H499    H    0.87976   0.83954   0.71137   1.000
    H500    H    0.83795   0.88237   0.70830   1.000
    Cu501   Cu   0.85603   0.82366   0.67554   1.000
    Cu502   Cu   0.82373   0.85819   0.67369   1.000
    Cu503   Cu   0.82386   0.82270   0.64116   1.000
    N504    N    0.85614   0.80413   0.65647   1.000
    N505    N    0.84337   0.80404   0.64326   1.000
    C506    C    0.84622   0.78938   0.63198   1.000
    C507    C    0.86161   0.77951   0.63835   1.000
    C508    C    0.86765   0.78935   0.65395   1.000
    H509    H    0.83777   0.78630   0.61986   1.000
    H510    H    0.87940   0.78592   0.66286   1.000
    N511    N    0.80518   0.84276   0.64118   1.000
    N512    N    0.80506   0.85635   0.65357   1.000
    C513    C    0.79083   0.86808   0.64961   1.000
    C514    C    0.78153   0.86155   0.63392   1.000
    C515    C    0.79106   0.84544   0.62904   1.000
    H516    H    0.78764   0.88055   0.65747   1.000
    H517    H    0.78810   0.83636   0.61739   1.000
    H518    H    0.82304   0.82978   0.66920   1.000
    H519    H    0.83896   0.84386   0.65397   1.000
    N520    N    0.65741   0.64502   0.69539   1.000
    N521    N    0.64437   0.65790   0.69384   1.000
    C522    C    0.63171   0.65542   0.70752   1.000
    C523    C    0.63705   0.64013   0.71827   1.000
    C524    C    0.65351   0.63395   0.71009   1.000
    H525    H    0.61935   0.66394   0.70926   1.000
    H526    H    0.66187   0.62203   0.71421   1.000
    Cu527   Cu   0.64460   0.67626   0.67372   1.000
    Cu528   Cu   0.67776   0.64275   0.67752   1.000
    Cu529   Cu   0.67684   0.67296   0.63967   1.000
    N530    N    0.64456   0.69309   0.65228   1.000
    N531    N    0.65701   0.69153   0.63893   1.000
    C532    C    0.65386   0.70479   0.62595   1.000
    C533    C    0.63854   0.71535   0.63137   1.000
    C534    C    0.63300   0.70744   0.64819   1.000
    H535    H    0.66225   0.70664   0.61356   1.000
    H536    H    0.62152   0.71186   0.65692   1.000
    N537    N    0.69594   0.65342   0.64287   1.000
    N538    N    0.69694   0.64257   0.65779   1.000
    C539    C    0.71212   0.63146   0.65632   1.000
    C540    C    0.72087   0.63535   0.63955   1.000
    C541    C    0.71023   0.64930   0.63139   1.000
    H542    H    0.71632   0.62100   0.66646   1.000
    H543    H    0.71297   0.65615   0.61819   1.000
    H544    H    0.67779   0.67022   0.66844   1.000
    H545    H    0.66235   0.65354   0.65559   1.000
    N546    N    0.65821   0.14180   0.19648   1.000
    N547    N    0.64514   0.15469   0.19691   1.000
    C548    C    0.63381   0.15134   0.21155   1.000
    C549    C    0.64016   0.13542   0.22086   1.000
    C550    C    0.65575   0.12985   0.21076   1.000
    H551    H    0.62183   0.15984   0.21504   1.000
    H552    H    0.66462   0.11789   0.21335   1.000
    Cu553   Cu   0.64428   0.17437   0.17806   1.000
    Cu554   Cu   0.67714   0.14096   0.17714   1.000
    Cu555   Cu   0.67546   0.17512   0.14271   1.000
    N556    N    0.64332   0.19339   0.15860   1.000
    N557    N    0.65546   0.19372   0.14485   1.000
    C558    C    0.65147   0.20830   0.13354   1.000
    C559    C    0.63597   0.21766   0.14057   1.000
    C560    C    0.63124   0.20769   0.15649   1.000
    H561    H    0.65935   0.21183   0.12116   1.000
    H562    H    0.61978   0.21054   0.16585   1.000
    N563    N    0.69456   0.15498   0.14324   1.000
    N564    N    0.69513   0.14219   0.15654   1.000
    C565    C    0.70928   0.13029   0.15318   1.000
    C566    C    0.71817   0.13565   0.13690   1.000
    C567    C    0.70846   0.15146   0.13099   1.000
    H568    H    0.71276   0.11849   0.16196   1.000
    H569    H    0.71111   0.15964   0.11857   1.000
    H570    H    0.67720   0.16937   0.17073   1.000
    H571    H    0.66137   0.15428   0.15654   1.000
    N572    N    0.15571   0.64123   0.19461   1.000
    N573    N    0.14308   0.65458   0.19482   1.000
    C574    C    0.13104   0.65122   0.20894   1.000
    C575    C    0.13648   0.63480   0.21805   1.000
    C576    C    0.15225   0.62901   0.20841   1.000
    H577    H    0.11920   0.66002   0.21221   1.000
    H578    H    0.16070   0.61675   0.21103   1.000
    Cu579   Cu   0.14386   0.67482   0.17634   1.000
    Cu580   Cu   0.17570   0.64005   0.17645   1.000
    Cu581   Cu   0.17700   0.67464   0.14278   1.000
    N582    N    0.14447   0.69387   0.15667   1.000
    N583    N    0.15755   0.69365   0.14382   1.000
    C584    C    0.15493   0.70806   0.13203   1.000
    C585    C    0.13926   0.71807   0.13760   1.000
    C586    C    0.13299   0.70853   0.15339   1.000
    H587    H    0.16383   0.71082   0.12019   1.000
    H588    H    0.12098   0.71191   0.16187   1.000
    N589    N    0.19545   0.65417   0.14406   1.000
    N590    N    0.19491   0.64103   0.15698   1.000
    C591    C    0.20895   0.62886   0.15407   1.000
    C592    C    0.21890   0.63452   0.13849   1.000
    C593    C    0.20991   0.65069   0.13254   1.000
    H594    H    0.21157   0.61665   0.16259   1.000
    H595    H    0.21346   0.65921   0.12059   1.000
    H596    H    0.17696   0.66850   0.17088   1.000
    H597    H    0.16128   0.65423   0.15560   1.000
    N598    N    0.15416   0.14460   0.69585   1.000
    N599    N    0.14184   0.15821   0.69486   1.000
    C600    C    0.12952   0.15630   0.70896   1.000
    C601    C    0.13442   0.14060   0.71945   1.000
    C602    C    0.15021   0.13363   0.71057   1.000
    H603    H    0.11787   0.16564   0.71130   1.000
    H604    H    0.15822   0.12136   0.71427   1.000
    Cu605   Cu   0.14306   0.17697   0.67506   1.000
    Cu606   Cu   0.17420   0.14165   0.67783   1.000
    Cu607   Cu   0.17619   0.17396   0.64184   1.000
    N608    N    0.14411   0.19466   0.65430   1.000
    N609    N    0.15717   0.19340   0.64150   1.000
    C610    C    0.15474   0.20708   0.62881   1.000
    C611    C    0.13919   0.21762   0.63376   1.000
    C612    C    0.13283   0.20921   0.65011   1.000
    H613    H    0.16362   0.20895   0.61679   1.000
    H614    H    0.12088   0.21327   0.65838   1.000
    N615    N    0.19420   0.15327   0.64455   1.000
    N616    N    0.19344   0.14095   0.65826   1.000
    C617    C    0.20733   0.12841   0.65608   1.000
    C618    C    0.21735   0.13298   0.64017   1.000
    C619    C    0.20858   0.14889   0.63328   1.000
    H620    H    0.20982   0.11671   0.66533   1.000
    H621    H    0.21226   0.15665   0.62087   1.000
    H622    H    0.17602   0.16952   0.67036   1.000
    H623    H    0.16015   0.15457   0.65603   1.000
    N624    N    0.34312   0.64361   0.30648   1.000
    N625    N    0.35618   0.65651   0.30630   1.000
    C626    C    0.36773   0.65323   0.29179   1.000
    C627    C    0.36152   0.63744   0.28236   1.000
    C628    C    0.34587   0.63178   0.29221   1.000
    H629    H    0.37966   0.66179   0.28828   1.000
    H630    H    0.33706   0.61988   0.28931   1.000
    Cu631   Cu   0.35659   0.67637   0.32507   1.000
    Cu632   Cu   0.32318   0.64291   0.32489   1.000
    Cu633   Cu   0.32405   0.67694   0.35892   1.000
    N634    N    0.35719   0.69490   0.34517   1.000
    N635    N    0.34429   0.69481   0.35819   1.000
    C636    C    0.34763   0.70859   0.37040   1.000
    C637    C    0.36359   0.71811   0.36496   1.000
    C638    C    0.36928   0.70894   0.34875   1.000
    H639    H    0.33893   0.71131   0.38239   1.000
    H640    H    0.38132   0.71212   0.34024   1.000
    N641    N    0.30459   0.65776   0.35759   1.000
    N642    N    0.30423   0.64462   0.34474   1.000
    C643    C    0.28930   0.63354   0.34779   1.000
    C644    C    0.27981   0.64012   0.36330   1.000
    C645    C    0.28996   0.65547   0.36912   1.000
    H646    H    0.28554   0.62168   0.33927   1.000
    H647    H    0.28707   0.66419   0.38106   1.000
    H648    H    0.32334   0.67106   0.33052   1.000
    H649    H    0.33862   0.65579   0.34538   1.000
    N650    N    0.34382   0.14450   0.80655   1.000
    N651    N    0.35655   0.15772   0.80659   1.000
    C652    C    0.36834   0.15499   0.79226   1.000
    C653    C    0.36284   0.13917   0.78259   1.000
    C654    C    0.34714   0.13287   0.79213   1.000
    H655    H    0.38016   0.16384   0.78921   1.000
    H656    H    0.33876   0.12074   0.78890   1.000
    Cu657   Cu   0.35656   0.17728   0.82531   1.000
    Cu658   Cu   0.32398   0.14358   0.82535   1.000
    Cu659   Cu   0.32421   0.17869   0.85896   1.000
    N660    N    0.35675   0.19680   0.84409   1.000
    N661    N    0.34405   0.19734   0.85729   1.000
    C662    C    0.34743   0.21210   0.86844   1.000
    C663    C    0.36316   0.22137   0.86186   1.000
    C664    C    0.36863   0.21119   0.84637   1.000
    H665    H    0.33906   0.21573   0.88044   1.000
    H666    H    0.38051   0.21389   0.83749   1.000
    N667    N    0.30534   0.15859   0.85829   1.000
    N668    N    0.30520   0.14523   0.84559   1.000
    C669    C    0.29067   0.13374   0.84903   1.000
    C670    C    0.28116   0.14015   0.86464   1.000
    C671    C    0.29095   0.15594   0.87008   1.000
    H672    H    0.28721   0.12166   0.84070   1.000
    H673    H    0.28791   0.16483   0.88186   1.000
    H674    H    0.32339   0.17190   0.83084   1.000
    H675    H    0.33863   0.15715   0.84609   1.000
    N676    N    0.84280   0.64103   0.80432   1.000
    N677    N    0.85509   0.65458   0.80314   1.000
    C678    C    0.86613   0.65149   0.78820   1.000
    C679    C    0.86035   0.63511   0.77956   1.000
    C680    C    0.84550   0.62892   0.79028   1.000
    H681    H    0.87745   0.66050   0.78392   1.000
    H682    H    0.83733   0.61641   0.78821   1.000
    Cu683   Cu   0.85541   0.67475   0.82140   1.000
    Cu684   Cu   0.82424   0.63983   0.82396   1.000
    Cu685   Cu   0.82456   0.67495   0.85712   1.000
    N686    N    0.85595   0.69392   0.84066   1.000
    N687    N    0.84388   0.69404   0.85447   1.000
    C688    C    0.84764   0.70860   0.86575   1.000
    C689    C    0.86295   0.71818   0.85868   1.000
    C690    C    0.86780   0.70837   0.84272   1.000
    H691    H    0.83984   0.71183   0.87824   1.000
    H692    H    0.87923   0.71136   0.83336   1.000
    N693    N    0.80624   0.65426   0.85728   1.000
    N694    N    0.80647   0.64079   0.84473   1.000
    C695    C    0.79302   0.62834   0.84878   1.000
    C696    C    0.78378   0.63415   0.86464   1.000
    C697    C    0.79246   0.65073   0.86964   1.000
    H698    H    0.79008   0.61594   0.84071   1.000
    H699    H    0.78926   0.65930   0.88163   1.000
    H700    H    0.82285   0.66839   0.82928   1.000
    H701    H    0.83965   0.65450   0.84379   1.000
    N702    N    0.84649   0.14371   0.30522   1.000
    N703    N    0.85862   0.15747   0.30594   1.000
    C704    C    0.87108   0.15538   0.29200   1.000
    C705    C    0.86656   0.13944   0.28194   1.000
    C706    C    0.85081   0.13245   0.29081   1.000
    H707    H    0.88267   0.16471   0.28950   1.000
    H708    H    0.84304   0.12004   0.28719   1.000
    Cu709   Cu   0.85718   0.17662   0.32522   1.000
    Cu710   Cu   0.82622   0.14117   0.32320   1.000
    Cu711   Cu   0.82385   0.17431   0.35828   1.000
    N712    N    0.85592   0.19473   0.34549   1.000
    N713    N    0.84284   0.19374   0.35830   1.000
    C714    C    0.84532   0.20762   0.37071   1.000
    C715    C    0.86085   0.21795   0.36550   1.000
    C716    C    0.86719   0.20930   0.34936   1.000
    H717    H    0.83650   0.20985   0.38272   1.000
    H718    H    0.87922   0.21316   0.34113   1.000
    N719    N    0.80586   0.15361   0.35601   1.000
    N720    N    0.80673   0.14096   0.34267   1.000
    C721    C    0.79275   0.12858   0.34509   1.000
    C722    C    0.78254   0.13364   0.36074   1.000
    C723    C    0.79133   0.14962   0.36724   1.000
    H724    H    0.79026   0.11672   0.33612   1.000
    H725    H    0.78758   0.15768   0.37941   1.000
    H726    H    0.82421   0.16916   0.32987   1.000
    H727    H    0.84005   0.15453   0.34472   1.000
    N728    N    0.65521   0.35598   0.30641   1.000
    N729    N    0.64298   0.34233   0.30598   1.000
    C730    C    0.63048   0.34557   0.29233   1.000
    C731    C    0.63510   0.36217   0.28337   1.000
    C732    C    0.65099   0.36838   0.29280   1.000
    H733    H    0.61897   0.33633   0.28923   1.000
    H734    H    0.65887   0.38098   0.29015   1.000
    Cu735   Cu   0.64454   0.32131   0.32293   1.000
    Cu736   Cu   0.67529   0.35661   0.32505   1.000
    Cu737   Cu   0.67435   0.32165   0.35898   1.000
    N738    N    0.64207   0.30374   0.34334   1.000
    N739    N    0.65395   0.30359   0.35732   1.000
    C740    C    0.64926   0.28978   0.36924   1.000
    C741    C    0.63344   0.28077   0.36237   1.000
    C742    C    0.62933   0.29019   0.34587   1.000
    H743    H    0.65683   0.28669   0.38195   1.000
    H744    H    0.61800   0.28750   0.33626   1.000
    N745    N    0.69372   0.34126   0.35811   1.000
    N746    N    0.69415   0.35454   0.34527   1.000
    C747    C    0.70892   0.36573   0.34866   1.000
    C748    C    0.71827   0.35921   0.36440   1.000
    C749    C    0.70815   0.34365   0.36995   1.000
    H750    H    0.71257   0.37775   0.34025   1.000
    H751    H    0.71095   0.33476   0.38185   1.000
    H752    H    0.67693   0.32840   0.33095   1.000
    H753    H    0.65976   0.34235   0.34472   1.000
    N754    N    0.65594   0.85651   0.80544   1.000
    N755    N    0.64507   0.84180   0.80389   1.000
    C756    C    0.63265   0.84467   0.79007   1.000
    C757    C    0.63584   0.86217   0.78241   1.000
    C758    C    0.65082   0.86927   0.79251   1.000
    H759    H    0.62208   0.83470   0.78599   1.000
    H760    H    0.65728   0.88283   0.79087   1.000
    Cu761   Cu   0.64744   0.82044   0.82029   1.000
    Cu762   Cu   0.67544   0.85797   0.82457   1.000
    Cu763   Cu   0.67469   0.82314   0.85830   1.000
    N764    N    0.64438   0.80342   0.84106   1.000
    N765    N    0.65501   0.80452   0.85598   1.000
    C766    C    0.64967   0.79137   0.86832   1.000
    C767    C    0.63481   0.78150   0.86074   1.000
    C768    C    0.63188   0.78960   0.84336   1.000
    H769    H    0.65599   0.78939   0.88191   1.000
    H770    H    0.62144   0.78582   0.83311   1.000
    N771    N    0.69343   0.84323   0.85802   1.000
    N772    N    0.69379   0.85655   0.84524   1.000
    C773    C    0.70818   0.86810   0.84894   1.000
    C774    C    0.71734   0.86175   0.86487   1.000
    C775    C    0.70753   0.84592   0.87016   1.000
    H776    H    0.71165   0.88025   0.84066   1.000
    H777    H    0.71039   0.83695   0.88197   1.000
    H778    H    0.67862   0.82982   0.83028   1.000
    H779    H    0.65952   0.84252   0.84285   1.000
    N780    N    0.15883   0.35816   0.80631   1.000
    N781    N    0.14522   0.34586   0.80586   1.000
    C782    C    0.13406   0.34963   0.79115   1.000
    C783    C    0.14101   0.36517   0.78183   1.000
    C784    C    0.15679   0.37015   0.79193   1.000
    H785    H    0.12175   0.34168   0.78756   1.000
    H786    H    0.16611   0.38170   0.78917   1.000
    Cu787   Cu   0.14337   0.32631   0.82474   1.000
    Cu788   Cu   0.17808   0.35792   0.82563   1.000
    Cu789   Cu   0.17523   0.32294   0.85916   1.000
    N790    N    0.14208   0.30654   0.84345   1.000
    N791    N    0.15455   0.30536   0.85689   1.000
    C792    C    0.15036   0.29076   0.86800   1.000
    C793    C    0.13429   0.28218   0.86123   1.000
    C794    C    0.12952   0.29268   0.84554   1.000
    H795    H    0.15849   0.28683   0.88012   1.000
    H796    H    0.11774   0.29056   0.83634   1.000
    N797    N    0.19510   0.34205   0.85906   1.000
    N798    N    0.19619   0.35534   0.84629   1.000
    C799    C    0.21104   0.36624   0.85011   1.000
    C800    C    0.21980   0.35955   0.86609   1.000
    C801    C    0.20924   0.34416   0.87133   1.000
    H802    H    0.21510   0.37821   0.84186   1.000
    H803    H    0.21155   0.33522   0.88330   1.000
    H804    H    0.17671   0.32955   0.83109   1.000
    H805    H    0.16213   0.34517   0.84602   1.000
    N806    N    0.15256   0.85532   0.30531   1.000
    N807    N    0.14026   0.84175   0.30652   1.000
    C808    C    0.12761   0.84373   0.29269   1.000
    C809    C    0.13218   0.85943   0.28222   1.000
    C810    C    0.14816   0.86637   0.29071   1.000
    H811    H    0.11586   0.83452   0.29054   1.000
    H812    H    0.15601   0.87862   0.28672   1.000
    Cu813   Cu   0.14186   0.82310   0.32632   1.000
    Cu814   Cu   0.17314   0.85800   0.32296   1.000
    Cu815   Cu   0.17658   0.82459   0.35798   1.000
    N816    N    0.14415   0.80425   0.34588   1.000
    N817    N    0.15777   0.80494   0.35817   1.000
    C818    C    0.15602   0.79060   0.37023   1.000
    C819    C    0.14038   0.78020   0.36532   1.000
    C820    C    0.13325   0.78939   0.34969   1.000
    H821    H    0.16545   0.78814   0.38178   1.000
    H822    H    0.12097   0.78571   0.34172   1.000
    N823    N    0.19425   0.84555   0.35545   1.000
    N824    N    0.19295   0.85828   0.34214   1.000
    C825    C    0.20674   0.87087   0.34440   1.000
    C826    C    0.21728   0.86588   0.35991   1.000
    C827    C    0.20889   0.84970   0.36651   1.000
    H828    H    0.20880   0.88290   0.33548   1.000
    H829    H    0.21301   0.84159   0.37858   1.000
    H830    H    0.17507   0.82994   0.32963   1.000
    H831    H    0.16023   0.84477   0.34512   1.000
    O832    O    0.06562   0.01708   0.09181   1.000
    O833    O    0.08725   0.01691   0.11379   1.000
    C834    C    0.07225   0.02358   0.10692   1.000
    O835    O    0.93105   0.98206   0.09195   1.000
    O836    O    0.90896   0.98225   0.11337   1.000
    C837    C    0.92413   0.97559   0.10697   1.000
    O838    O    0.01754   0.09320   0.06590   1.000
    O839    O    0.01781   0.11512   0.08750   1.000
    C840    C    0.02430   0.10823   0.07249   1.000
    O841    O    0.97972   0.90582   0.06684   1.000
    O842    O    0.97909   0.88420   0.08885   1.000
    C843    C    0.97291   0.89085   0.07355   1.000
    O844    O    0.09326   0.06587   0.01740   1.000
    O845    O    0.11539   0.08730   0.01763   1.000
    C846    C    0.10845   0.07225   0.02404   1.000
    O847    O    0.90638   0.93308   0.01627   1.000
    O848    O    0.88417   0.91174   0.01601   1.000
    C849    C    0.89106   0.92672   0.02256   1.000
    O850    O    0.98049   0.06828   0.09148   1.000
    O851    O    0.98069   0.09007   0.11320   1.000
    C852    C    0.97407   0.07498   0.10659   1.000
    O853    O    0.01636   0.93104   0.09249   1.000
    O854    O    0.01598   0.90942   0.11451   1.000
    C855    C    0.02266   0.92443   0.10775   1.000
    O856    O    0.09129   0.97998   0.06704   1.000
    O857    O    0.11292   0.97993   0.08904   1.000
    C858    C    0.10638   0.97347   0.07387   1.000
    O859    O    0.90632   0.01892   0.06561   1.000
    O860    O    0.88415   0.01931   0.08695   1.000
    C861    C    0.89114   0.02566   0.07190   1.000
    O862    O    0.93273   0.09396   0.01557   1.000
    O863    O    0.91086   0.11574   0.01506   1.000
    C864    C    0.92590   0.10910   0.02188   1.000
    O865    O    0.06565   0.90400   0.01900   1.000
    O866    O    0.08754   0.88223   0.01933   1.000
    C867    C    0.07232   0.88888   0.02561   1.000
    O868    O    0.93157   0.01872   0.09158   1.000
    O869    O    0.90948   0.01901   0.11300   1.000
    C870    C    0.92476   0.02535   0.10655   1.000
    O871    O    0.06546   0.98038   0.09236   1.000
    O872    O    0.08711   0.98031   0.11433   1.000
    C873    C    0.07200   0.97391   0.10759   1.000
    O874    O    0.01626   0.90512   0.06730   1.000
    O875    O    0.01565   0.88347   0.08929   1.000
    C876    C    0.02238   0.88987   0.07417   1.000
    O877    O    0.98089   0.09383   0.06573   1.000
    O878    O    0.98100   0.11570   0.08737   1.000
    C879    C    0.97449   0.10906   0.07225   1.000
    O880    O    0.90760   0.06799   0.01538   1.000
    O881    O    0.88573   0.08978   0.01486   1.000
    C882    C    0.89239   0.07470   0.02161   1.000
    O883    O    0.09116   0.92962   0.01906   1.000
    O884    O    0.11314   0.90794   0.01933   1.000
    C885    C    0.10639   0.92312   0.02558   1.000
    O886    O    0.97982   0.93185   0.09189   1.000
    O887    O    0.97942   0.91025   0.11393   1.000
    C888    C    0.97319   0.92544   0.10705   1.000
    O889    O    0.01705   0.06764   0.09152   1.000
    O890    O    0.01737   0.08946   0.11321   1.000
    C891    C    0.02364   0.07419   0.10662   1.000
    O892    O    0.90594   0.98229   0.06585   1.000
    O893    O    0.88378   0.98254   0.08720   1.000
    C894    C    0.89065   0.97594   0.07224   1.000
    O895    O    0.09173   0.01652   0.06674   1.000
    O896    O    0.11332   0.01632   0.08878   1.000
    C897    C    0.10694   0.02273   0.07348   1.000
    O898    O    0.93127   0.90679   0.01683   1.000
    O899    O    0.90903   0.88547   0.01667   1.000
    C900    C    0.92421   0.89183   0.02333   1.000
    O901    O    0.06760   0.09153   0.01706   1.000
    O902    O    0.08970   0.11297   0.01728   1.000
    C903    C    0.07438   0.10657   0.02357   1.000
    Cu904   Cu   0.07633   0.99850   0.07729   1.000
    Cu905   Cu   0.10227   0.99837   0.10373   1.000
    Cu906   Cu   0.92092   0.00045   0.07663   1.000
    Cu907   Cu   0.89438   0.00083   0.10227   1.000
    Cu908   Cu   0.99894   0.07859   0.07649   1.000
    Cu909   Cu   0.99924   0.10479   0.10247   1.000
    Cu910   Cu   0.99811   0.92061   0.07741   1.000
    Cu911   Cu   0.99747   0.89468   0.10387   1.000
    O912    O    0.06737   0.97988   0.90634   1.000
    O913    O    0.08946   0.97934   0.88491   1.000
    C914    C    0.07415   0.97314   0.89139   1.000
    O915    O    0.93409   0.01822   0.90428   1.000
    O916    O    0.91243   0.01826   0.88232   1.000
    C917    C    0.92756   0.02467   0.88905   1.000
    O918    O    0.98294   0.09321   0.93043   1.000
    O919    O    0.98342   0.11500   0.90858   1.000
    C920    C    0.97676   0.10848   0.92370   1.000
    O921    O    0.01766   0.90488   0.93253   1.000
    O922    O    0.01765   0.88303   0.91085   1.000
    C923    C    0.02395   0.88958   0.92609   1.000
    O924    O    0.09093   0.93005   0.98268   1.000
    O925    O    0.11292   0.90837   0.98290   1.000
    C926    C    0.10623   0.92357   0.97644   1.000
    O927    O    0.90766   0.06815   0.97878   1.000
    O928    O    0.88575   0.08989   0.97829   1.000
    C929    C    0.89252   0.07470   0.97207   1.000
    O930    O    0.01923   0.06686   0.90543   1.000
    O931    O    0.01974   0.08854   0.88347   1.000
    C932    C    0.02588   0.07327   0.89029   1.000
    O933    O    0.98175   0.93105   0.90641   1.000
    O934    O    0.98176   0.90916   0.88478   1.000
    C935    C    0.97542   0.92444   0.89122   1.000
    O936    O    0.09305   0.01643   0.93186   1.000
    O937    O    0.11517   0.01581   0.91047   1.000
    C938    C    0.10842   0.02255   0.92541   1.000
    O939    O    0.90818   0.98196   0.93002   1.000
    O940    O    0.88652   0.98211   0.90804   1.000
    C941    C    0.89301   0.97565   0.92329   1.000
    O942    O    0.06821   0.09177   0.98050   1.000
    O943    O    0.09029   0.11324   0.98073   1.000
    C944    C    0.07513   0.10682   0.97408   1.000
    O945    O    0.93173   0.90645   0.98033   1.000
    O946    O    0.90953   0.88509   0.98025   1.000
    C947    C    0.92492   0.89133   0.97400   1.000
    O948    O    0.93362   0.98154   0.90440   1.000
    O949    O    0.91197   0.98161   0.88243   1.000
    C950    C    0.92697   0.97496   0.88931   1.000
    O951    O    0.06745   0.01652   0.90618   1.000
    O952    O    0.08954   0.01599   0.88476   1.000
    C953    C    0.07437   0.02275   0.89108   1.000
    O954    O    0.98116   0.90519   0.93177   1.000
    O955    O    0.98115   0.88328   0.91015   1.000
    C956    C    0.97462   0.89007   0.92516   1.000
    O957    O    0.01948   0.09280   0.93056   1.000
    O958    O    0.02005   0.11456   0.90868   1.000
    C959    C    0.02628   0.10782   0.92392   1.000
    O960    O    0.90662   0.93268   0.97968   1.000
    O961    O    0.88441   0.91133   0.97946   1.000
    C962    C    0.89145   0.92631   0.97300   1.000
    O963    O    0.09350   0.06578   0.98083   1.000
    O964    O    0.11560   0.08723   0.98104   1.000
    C965    C    0.10879   0.07220   0.97450   1.000
    O966    O    0.01824   0.93041   0.90673   1.000
    O967    O    0.01824   0.90860   0.88502   1.000
    C968    C    0.02471   0.92374   0.89164   1.000
    O969    O    0.98276   0.06783   0.90470   1.000
    O970    O    0.98318   0.08954   0.88277   1.000
    C971    C    0.97651   0.07447   0.88943   1.000
    O972    O    0.90829   0.01849   0.92967   1.000
    O973    O    0.88660   0.01858   0.90773   1.000
    C974    C    0.89315   0.02498   0.92293   1.000
    O975    O    0.09197   0.97990   0.93292   1.000
    O976    O    0.11413   0.97928   0.91156   1.000
    C977    C    0.10716   0.97315   0.92671   1.000
    O978    O    0.06601   0.90388   0.98249   1.000
    O979    O    0.08789   0.88209   0.98268   1.000
    C980    C    0.07276   0.88875   0.97609   1.000
    O981    O    0.93331   0.09376   0.97899   1.000
    O982    O    0.91145   0.11555   0.97848   1.000
    C983    C    0.92673   0.10891   0.97233   1.000
    Cu984   Cu   0.07773   0.99826   0.92143   1.000
    Cu985   Cu   0.10429   0.99753   0.89579   1.000
    Cu986   Cu   0.92326   0.00006   0.91925   1.000
    Cu987   Cu   0.89722   0.00018   0.89292   1.000
    Cu988   Cu   0.07846   0.07657   0.99892   1.000
    Cu989   Cu   0.10494   0.10235   0.99920   1.000
    Cu990   Cu   0.07620   0.91901   0.00081   1.000
    Cu991   Cu   0.10257   0.89296   0.00106   1.000
    Cu992   Cu   0.92252   0.07880   0.99718   1.000
    Cu993   Cu   0.89625   0.10490   0.99660   1.000
    Cu994   Cu   0.92122   0.92190   0.99825   1.000
    Cu995   Cu   0.89453   0.89630   0.99807   1.000
    Cu996   Cu   0.00104   0.07802   0.91997   1.000
    Cu997   Cu   0.00165   0.10410   0.89369   1.000
    Cu998   Cu   0.99972   0.92006   0.92155   1.000
    Cu999   Cu   0.99973   0.89383   0.89551   1.000
    O1000   O    0.98308   0.43297   0.40808   1.000
    O1001   O    0.98301   0.41135   0.38617   1.000
    C1002   C    0.97649   0.42642   0.39298   1.000
    O1003   O    0.01823   0.56887   0.40867   1.000
    O1004   O    0.01787   0.59079   0.38693   1.000
    C1005   C    0.02450   0.57565   0.39350   1.000
    O1006   O    0.90626   0.48195   0.43306   1.000
    O1007   O    0.88472   0.48229   0.41098   1.000
    C1008   C    0.89111   0.47571   0.42622   1.000
    O1009   O    0.09307   0.51877   0.43276   1.000
    O1010   O    0.11472   0.51924   0.41087   1.000
    C1011   C    0.10823   0.52526   0.42624   1.000
    O1012   O    0.93216   0.40709   0.48096   1.000
    O1013   O    0.91068   0.38502   0.48084   1.000
    C1014   C    0.92575   0.39189   0.47442   1.000
    O1015   O    0.06829   0.59345   0.48264   1.000
    O1016   O    0.09002   0.61529   0.48263   1.000
    C1017   C    0.07481   0.60870   0.47627   1.000
    O1018   O    0.93268   0.51829   0.40808   1.000
    O1019   O    0.91133   0.51847   0.38581   1.000
    C1020   C    0.92640   0.52479   0.39277   1.000
    O1021   O    0.06740   0.48284   0.40658   1.000
    O1022   O    0.08891   0.48344   0.38456   1.000
    C1023   C    0.07390   0.47673   0.39127   1.000
    O1024   O    0.01997   0.40675   0.43284   1.000
    O1025   O    0.01992   0.38515   0.41093   1.000
    C1026   C    0.02650   0.39169   0.42605   1.000
    O1027   O    0.98144   0.59434   0.43411   1.000
    O1028   O    0.98131   0.61617   0.41229   1.000
    C1029   C    0.97493   0.60951   0.42743   1.000
    O1030   O    0.90702   0.56778   0.48223   1.000
    O1031   O    0.88511   0.58953   0.48246   1.000
    C1032   C    0.89185   0.57448   0.47582   1.000
    O1033   O    0.09546   0.43303   0.48078   1.000
    O1034   O    0.11741   0.41132   0.48060   1.000
    C1035   C    0.11052   0.42640   0.47409   1.000
    O1036   O    0.98176   0.56824   0.40896   1.000
    O1037   O    0.98153   0.59007   0.38714   1.000
    C1038   C    0.97536   0.57475   0.39372   1.000
    O1039   O    0.01962   0.43246   0.40713   1.000
    O1040   O    0.01953   0.41087   0.38521   1.000
    C1041   C    0.02591   0.42604   0.39182   1.000
    O1042   O    0.09351   0.48231   0.43167   1.000
    O1043   O    0.11502   0.48281   0.40965   1.000
    C1044   C    0.10862   0.47603   0.42475   1.000
    O1045   O    0.90662   0.51853   0.43308   1.000
    O1046   O    0.88519   0.51895   0.41090   1.000
    C1047   C    0.89168   0.52529   0.42616   1.000
    O1048   O    0.93183   0.59403   0.48241   1.000
    O1049   O    0.90999   0.61585   0.48270   1.000
    C1050   C    0.92513   0.60930   0.47614   1.000
    O1051   O    0.06990   0.40754   0.48114   1.000
    O1052   O    0.09180   0.38578   0.48120   1.000
    C1053   C    0.07657   0.39237   0.47479   1.000
    O1054   O    0.06769   0.51947   0.40689   1.000
    O1055   O    0.08927   0.52007   0.38496   1.000
    C1056   C    0.07418   0.52635   0.39185   1.000
    O1057   O    0.93240   0.48172   0.40804   1.000
    O1058   O    0.91093   0.48183   0.38590   1.000
    C1059   C    0.92598   0.47527   0.39281   1.000
    O1060   O    0.01805   0.59415   0.43446   1.000
    O1061   O    0.01783   0.61603   0.41268   1.000
    C1062   C    0.02441   0.60933   0.42780   1.000
    O1063   O    0.98321   0.40685   0.43306   1.000
    O1064   O    0.98319   0.38523   0.41116   1.000
    C1065   C    0.97662   0.39184   0.42625   1.000
    O1066   O    0.09371   0.56763   0.48249   1.000
    O1067   O    0.11555   0.58936   0.48243   1.000
    C1068   C    0.10885   0.57422   0.47602   1.000
    O1069   O    0.90610   0.43232   0.48138   1.000
    O1070   O    0.88451   0.41036   0.48132   1.000
    C1071   C    0.89095   0.42566   0.47496   1.000
    Cu1072  Cu   0.00158   0.42188   0.42250   1.000
    Cu1073  Cu   0.00140   0.39597   0.39621   1.000
    Cu1074  Cu   0.99986   0.57923   0.42378   1.000
    Cu1075  Cu   0.99957   0.60547   0.39759   1.000
    Cu1076  Cu   0.92162   0.50008   0.42279   1.000
    Cu1077  Cu   0.89590   0.50041   0.39617   1.000
    Cu1078  Cu   0.07822   0.50081   0.42164   1.000
    Cu1079  Cu   0.10412   0.50146   0.39529   1.000
    O1080   O    0.01943   0.43206   0.59204   1.000
    O1081   O    0.01947   0.40998   0.61361   1.000
    C1082   C    0.02581   0.42528   0.60721   1.000
    O1083   O    0.98244   0.56620   0.59283   1.000
    O1084   O    0.98243   0.58779   0.61476   1.000
    C1085   C    0.97604   0.57268   0.60804   1.000
    O1086   O    0.90715   0.51733   0.56733   1.000
    O1087   O    0.88551   0.51720   0.58922   1.000
    C1088   C    0.89198   0.52369   0.57401   1.000
    O1089   O    0.09492   0.48130   0.56762   1.000
    O1090   O    0.11662   0.48107   0.58954   1.000
    C1091   C    0.11012   0.47485   0.57425   1.000
    O1092   O    0.07026   0.40752   0.51756   1.000
    O1093   O    0.09221   0.38580   0.51771   1.000
    C1094   C    0.07699   0.39240   0.52410   1.000
    O1095   O    0.93251   0.59316   0.51880   1.000
    O1096   O    0.91066   0.61497   0.51922   1.000
    C1097   C    0.92594   0.60826   0.52543   1.000
    O1098   O    0.93297   0.48066   0.59271   1.000
    O1099   O    0.91145   0.48045   0.61471   1.000
    C1100   C    0.92652   0.47402   0.60786   1.000
    O1101   O    0.06896   0.51741   0.59326   1.000
    O1102   O    0.09058   0.51736   0.61527   1.000
    C1103   C    0.07541   0.52376   0.60852   1.000
    O1104   O    0.98322   0.40655   0.56579   1.000
    O1105   O    0.98349   0.38441   0.58730   1.000
    C1106   C    0.97694   0.39122   0.57223   1.000
    O1107   O    0.01889   0.59214   0.56756   1.000
    O1108   O    0.01878   0.61369   0.58953   1.000
    C1109   C    0.02518   0.60729   0.57431   1.000
    O1110   O    0.90637   0.43181   0.51790   1.000
    O1111   O    0.88484   0.40979   0.51802   1.000
    C1112   C    0.89140   0.42495   0.52454   1.000
    O1113   O    0.09410   0.56757   0.51895   1.000
    O1114   O    0.11590   0.58933   0.51899   1.000
    C1115   C    0.10930   0.57412   0.52538   1.000
    O1116   O    0.01896   0.56614   0.59289   1.000
    O1117   O    0.01881   0.58772   0.61484   1.000
    C1118   C    0.02527   0.57260   0.60816   1.000
    O1119   O    0.98285   0.43192   0.59160   1.000
    O1120   O    0.98304   0.40973   0.61305   1.000
    C1121   C    0.97644   0.42495   0.60661   1.000
    O1122   O    0.09446   0.51777   0.56772   1.000
    O1123   O    0.11621   0.51766   0.58960   1.000
    C1124   C    0.10958   0.52420   0.57444   1.000
    O1125   O    0.90734   0.48078   0.56720   1.000
    O1126   O    0.88578   0.48066   0.58917   1.000
    C1127   C    0.89230   0.47426   0.57397   1.000
    O1128   O    0.06842   0.59310   0.51904   1.000
    O1129   O    0.09011   0.61498   0.51917   1.000
    C1130   C    0.07497   0.60825   0.52554   1.000
    O1131   O    0.93260   0.40683   0.51739   1.000
    O1132   O    0.91118   0.38469   0.51743   1.000
    C1133   C    0.92634   0.39149   0.52376   1.000
    O1134   O    0.06899   0.48093   0.59282   1.000
    O1135   O    0.09059   0.48075   0.61485   1.000
    C1136   C    0.07548   0.47437   0.60802   1.000
    O1137   O    0.93290   0.51722   0.59286   1.000
    O1138   O    0.91134   0.51708   0.61483   1.000
    C1139   C    0.92643   0.52356   0.60810   1.000
    O1140   O    0.98242   0.59209   0.56741   1.000
    O1141   O    0.98245   0.61366   0.58937   1.000
    C1142   C    0.97606   0.60725   0.57412   1.000
    O1143   O    0.01992   0.40707   0.56590   1.000
    O1144   O    0.02003   0.38503   0.58751   1.000
    C1145   C    0.02656   0.39194   0.57252   1.000
    O1146   O    0.09561   0.43332   0.51736   1.000
    O1147   O    0.11762   0.41167   0.51724   1.000
    C1148   C    0.11087   0.42676   0.52373   1.000
    O1149   O    0.90686   0.56769   0.51876   1.000
    O1150   O    0.88489   0.58937   0.51910   1.000
    C1151   C    0.89169   0.57415   0.52535   1.000
    Cu1152  Cu   0.00134   0.42161   0.57666   1.000
    Cu1153  Cu   0.00151   0.39505   0.60249   1.000
    Cu1154  Cu   0.00068   0.57696   0.57796   1.000
    Cu1155  Cu   0.00061   0.60287   0.60434   1.000
    Cu1156  Cu   0.92141   0.42174   0.49940   1.000
    Cu1157  Cu   0.89565   0.39525   0.49939   1.000
    Cu1158  Cu   0.08064   0.42255   0.49922   1.000
    Cu1159  Cu   0.10698   0.39648   0.49921   1.000
    Cu1160  Cu   0.92174   0.57850   0.50053   1.000
    Cu1161  Cu   0.89542   0.60458   0.50093   1.000
    Cu1162  Cu   0.07896   0.57826   0.50078   1.000
    Cu1163  Cu   0.10510   0.60442   0.50080   1.000
    Cu1164  Cu   0.92227   0.49904   0.57785   1.000
    Cu1165  Cu   0.89635   0.49887   0.60418   1.000
    Cu1166  Cu   0.07966   0.49935   0.57817   1.000
    Cu1167  Cu   0.10568   0.49918   0.60452   1.000
    O1168   O    0.48191   0.93304   0.40715   1.000
    O1169   O    0.48243   0.91129   0.38538   1.000
    C1170   C    0.47563   0.92631   0.39198   1.000
    O1171   O    0.51671   0.06723   0.40654   1.000
    O1172   O    0.51655   0.08930   0.38495   1.000
    C1173   C    0.52310   0.07407   0.39148   1.000
    O1174   O    0.40611   0.98125   0.43179   1.000
    O1175   O    0.38428   0.98101   0.41000   1.000
    C1176   C    0.39103   0.97462   0.42516   1.000
    O1177   O    0.59296   0.01997   0.43307   1.000
    O1178   O    0.61488   0.02014   0.41146   1.000
    C1179   C    0.60809   0.02655   0.42654   1.000
    O1180   O    0.43278   0.90631   0.48127   1.000
    O1181   O    0.41118   0.88436   0.48123   1.000
    C1182   C    0.42627   0.89113   0.47478   1.000
    O1183   O    0.56563   0.09280   0.48268   1.000
    O1184   O    0.58686   0.11511   0.48290   1.000
    C1185   C    0.57197   0.10808   0.47624   1.000
    O1186   O    0.43133   0.01810   0.40635   1.000
    O1187   O    0.40959   0.01786   0.38448   1.000
    C1188   C    0.42462   0.02451   0.39119   1.000
    O1189   O    0.56780   0.98319   0.40765   1.000
    O1190   O    0.58962   0.98323   0.38594   1.000
    C1191   C    0.57447   0.97676   0.39254   1.000
    O1192   O    0.51888   0.90779   0.43279   1.000
    O1193   O    0.51946   0.88608   0.41098   1.000
    C1194   C    0.52569   0.89276   0.42618   1.000
    O1195   O    0.48026   0.09235   0.43241   1.000
    O1196   O    0.48006   0.11458   0.41099   1.000
    C1197   C    0.47372   0.10762   0.42605   1.000
    O1198   O    0.40536   0.06583   0.48159   1.000
    O1199   O    0.38349   0.08763   0.48164   1.000
    C1200   C    0.39021   0.07258   0.47508   1.000
    O1201   O    0.59307   0.93410   0.48298   1.000
    O1202   O    0.61525   0.91261   0.48317   1.000
    C1203   C    0.60842   0.92773   0.47673   1.000
    O1204   O    0.48015   0.06754   0.40617   1.000
    O1205   O    0.47991   0.08968   0.38468   1.000
    C1206   C    0.47353   0.07441   0.39114   1.000
    O1207   O    0.51847   0.93385   0.40754   1.000
    O1208   O    0.51890   0.91216   0.38572   1.000
    C1209   C    0.52503   0.92741   0.39239   1.000
    O1210   O    0.59317   0.98345   0.43344   1.000
    O1211   O    0.61511   0.98347   0.41185   1.000
    C1212   C    0.60842   0.97705   0.42699   1.000
    O1213   O    0.40549   0.01776   0.43157   1.000
    O1214   O    0.38369   0.01766   0.40976   1.000
    C1215   C    0.39028   0.02414   0.42491   1.000
    O1216   O    0.43126   0.09117   0.48199   1.000
    O1217   O    0.40930   0.11288   0.48193   1.000
    C1218   C    0.42455   0.10635   0.47559   1.000
    O1219   O    0.56762   0.90844   0.48266   1.000
    O1220   O    0.58979   0.88694   0.48274   1.000
    C1221   C    0.57457   0.89346   0.47619   1.000
    O1222   O    0.56739   0.01962   0.40741   1.000
    O1223   O    0.58921   0.01976   0.38570   1.000
    C1224   C    0.57391   0.02602   0.39220   1.000
    O1225   O    0.43168   0.98154   0.40631   1.000
    O1226   O    0.40994   0.98120   0.38443   1.000
    C1227   C    0.42517   0.97493   0.39119   1.000
    O1228   O    0.51677   0.09262   0.43220   1.000
    O1229   O    0.51669   0.11476   0.41070   1.000
    C1230   C    0.52320   0.10788   0.42576   1.000
    O1231   O    0.48232   0.90753   0.43285   1.000
    O1232   O    0.48292   0.88580   0.41106   1.000
    C1233   C    0.47620   0.89231   0.42612   1.000
    O1234   O    0.59217   0.06819   0.48282   1.000
    O1235   O    0.61340   0.09051   0.48303   1.000
    C1236   C    0.60715   0.07527   0.47644   1.000
    O1237   O    0.40717   0.93198   0.48112   1.000
    O1238   O    0.38554   0.91004   0.48125   1.000
    C1239   C    0.39204   0.92523   0.47472   1.000
    Cu1240  Cu   0.50037   0.92273   0.42229   1.000
    Cu1241  Cu   0.50100   0.89666   0.39610   1.000
    Cu1242  Cu   0.49847   0.07771   0.42146   1.000
    Cu1243  Cu   0.49830   0.10431   0.39568   1.000
    Cu1244  Cu   0.42082   0.99969   0.42119   1.000
    Cu1245  Cu   0.39470   0.99941   0.39496   1.000
    Cu1246  Cu   0.57816   0.00156   0.42257   1.000
    Cu1247  Cu   0.60443   0.00166   0.39658   1.000
    O1248   O    0.51812   0.93232   0.59364   1.000
    O1249   O    0.51848   0.91035   0.61531   1.000
    C1250   C    0.52469   0.92565   0.60876   1.000
    O1251   O    0.47976   0.06702   0.59503   1.000
    O1252   O    0.47943   0.08901   0.61655   1.000
    C1253   C    0.47325   0.07367   0.61011   1.000
    O1254   O    0.40631   0.01747   0.56866   1.000
    O1255   O    0.38426   0.01707   0.59014   1.000
    C1256   C    0.39098   0.02369   0.57511   1.000
    O1257   O    0.59166   0.98310   0.56840   1.000
    O1258   O    0.61341   0.98307   0.59029   1.000
    C1259   C    0.60684   0.97671   0.57511   1.000
    O1260   O    0.56784   0.90765   0.51912   1.000
    O1261   O    0.58995   0.88610   0.51919   1.000
    C1262   C    0.57466   0.89250   0.52553   1.000
    O1263   O    0.43077   0.09121   0.51853   1.000
    O1264   O    0.40882   0.11293   0.51826   1.000
    C1265   C    0.42394   0.10633   0.52489   1.000
    O1266   O    0.43196   0.98087   0.59417   1.000
    O1267   O    0.40987   0.98017   0.61560   1.000
    C1268   C    0.42521   0.97404   0.60910   1.000
    O1269   O    0.56588   0.01940   0.59400   1.000
    O1270   O    0.58776   0.01929   0.61575   1.000
    C1271   C    0.57258   0.02577   0.60914   1.000
    O1272   O    0.48191   0.90667   0.56780   1.000
    O1273   O    0.48204   0.88469   0.58947   1.000
    C1274   C    0.47554   0.89144   0.57435   1.000
    O1275   O    0.51566   0.09249   0.56863   1.000
    O1276   O    0.51534   0.11468   0.58996   1.000
    C1277   C    0.52185   0.10787   0.57492   1.000
    O1278   O    0.40727   0.93203   0.51763   1.000
    O1279   O    0.38557   0.91017   0.51775   1.000
    C1280   C    0.39215   0.92539   0.52411   1.000
    O1281   O    0.59213   0.06811   0.51934   1.000
    O1282   O    0.61340   0.09039   0.51954   1.000
    C1283   C    0.60713   0.07503   0.52587   1.000
    O1284   O    0.51625   0.06787   0.59511   1.000
    O1285   O    0.51613   0.08993   0.61656   1.000
    C1286   C    0.52280   0.07481   0.61007   1.000
    O1287   O    0.48163   0.93213   0.59339   1.000
    O1288   O    0.48198   0.91017   0.61508   1.000
    C1289   C    0.47532   0.92530   0.60850   1.000
    O1290   O    0.59178   0.01953   0.56870   1.000
    O1291   O    0.61361   0.01937   0.59050   1.000
    C1292   C    0.60702   0.02582   0.57531   1.000
    O1293   O    0.40725   0.98108   0.56770   1.000
    O1294   O    0.38507   0.98063   0.58905   1.000
    C1295   C    0.39198   0.97453   0.57389   1.000
    O1296   O    0.56554   0.09288   0.51926   1.000
    O1297   O    0.58678   0.11519   0.51945   1.000
    C1298   C    0.57173   0.10819   0.52576   1.000
    O1299   O    0.43310   0.90664   0.51781   1.000
    O1300   O    0.41145   0.88473   0.51783   1.000
    C1301   C    0.42653   0.89148   0.52433   1.000
    O1302   O    0.56613   0.98278   0.59389   1.000
    O1303   O    0.58793   0.98279   0.61572   1.000
    C1304   C    0.57287   0.97623   0.60898   1.000
    O1305   O    0.43179   0.01739   0.59442   1.000
    O1306   O    0.40979   0.01676   0.61594   1.000
    C1307   C    0.42493   0.02348   0.60958   1.000
    O1308   O    0.47920   0.09231   0.56909   1.000
    O1309   O    0.47873   0.11442   0.59049   1.000
    C1310   C    0.47245   0.10746   0.57542   1.000
    O1311   O    0.51843   0.90704   0.56783   1.000
    O1312   O    0.51859   0.88503   0.58948   1.000
    C1313   C    0.52500   0.89186   0.57441   1.000
    O1314   O    0.59275   0.93386   0.51940   1.000
    O1315   O    0.61488   0.91232   0.51958   1.000
    C1316   C    0.60795   0.92737   0.52596   1.000
    O1317   O    0.40549   0.06537   0.51823   1.000
    O1318   O    0.38363   0.08718   0.51811   1.000
    C1319   C    0.39035   0.07207   0.52466   1.000
    Cu1320  Cu   0.50002   0.92175   0.57848   1.000
    Cu1321  Cu   0.50030   0.89534   0.60451   1.000
    Cu1322  Cu   0.49772   0.07768   0.57987   1.000
    Cu1323  Cu   0.49737   0.10424   0.60553   1.000
    Cu1324  Cu   0.42226   0.92142   0.49943   1.000
    Cu1325  Cu   0.39627   0.89512   0.49955   1.000
    Cu1326  Cu   0.57809   0.92317   0.50106   1.000
    Cu1327  Cu   0.60469   0.89732   0.50115   1.000
    Cu1328  Cu   0.42040   0.07617   0.50008   1.000
    Cu1329  Cu   0.39411   0.10232   0.49995   1.000
    Cu1330  Cu   0.57676   0.07823   0.50106   1.000
    Cu1331  Cu   0.60220   0.10507   0.50127   1.000
    Cu1332  Cu   0.42157   0.99928   0.57912   1.000
    Cu1333  Cu   0.39503   0.99858   0.60484   1.000
    Cu1334  Cu   0.57663   0.00125   0.57906   1.000
    Cu1335  Cu   0.60283   0.00114   0.60531   1.000
    O1336   O    0.48198   0.43345   0.90712   1.000
    O1337   O    0.48139   0.41146   0.88560   1.000
    C1338   C    0.47530   0.42683   0.89209   1.000
    O1339   O    0.51987   0.56700   0.90551   1.000
    O1340   O    0.52001   0.58869   0.88356   1.000
    C1341   C    0.52640   0.57353   0.89035   1.000
    O1342   O    0.40723   0.48284   0.93359   1.000
    O1343   O    0.38512   0.48315   0.91208   1.000
    C1344   C    0.39187   0.47662   0.92718   1.000
    O1345   O    0.59358   0.51765   0.93274   1.000
    O1346   O    0.61577   0.51722   0.91141   1.000
    C1347   C    0.60884   0.52399   0.92627   1.000
    O1348   O    0.43250   0.40918   0.98375   1.000
    O1349   O    0.41079   0.38734   0.98402   1.000
    C1350   C    0.42587   0.39399   0.97740   1.000
    O1351   O    0.56789   0.59284   0.98202   1.000
    O1352   O    0.58982   0.61447   0.98166   1.000
    C1353   C    0.57463   0.60785   0.97532   1.000
    O1354   O    0.43293   0.51902   0.90757   1.000
    O1355   O    0.41082   0.51932   0.88605   1.000
    C1356   C    0.42620   0.52548   0.89241   1.000
    O1357   O    0.56809   0.48093   0.90735   1.000
    O1358   O    0.59027   0.48046   0.88601   1.000
    C1359   C    0.57494   0.47422   0.89244   1.000
    O1360   O    0.51783   0.40723   0.93304   1.000
    O1361   O    0.51739   0.38514   0.91162   1.000
    C1362   C    0.52396   0.39184   0.92668   1.000
    O1363   O    0.48366   0.59295   0.93111   1.000
    O1364   O    0.48377   0.61467   0.90918   1.000
    C1365   C    0.47744   0.60824   0.92446   1.000
    O1366   O    0.40988   0.56971   0.98215   1.000
    O1367   O    0.38825   0.59174   0.98181   1.000
    C1368   C    0.39466   0.57634   0.97574   1.000
    O1369   O    0.59175   0.43180   0.98320   1.000
    O1370   O    0.61324   0.40962   0.98330   1.000
    C1371   C    0.60681   0.42490   0.97681   1.000
    O1372   O    0.48328   0.56699   0.90599   1.000
    O1373   O    0.48333   0.58863   0.88399   1.000
    C1374   C    0.47677   0.57359   0.89084   1.000
    O1375   O    0.51855   0.43239   0.90701   1.000
    O1376   O    0.51810   0.41038   0.88552   1.000
    C1377   C    0.52494   0.42542   0.89201   1.000
    O1378   O    0.59325   0.48100   0.93337   1.000
    O1379   O    0.61547   0.48053   0.91207   1.000
    C1380   C    0.60844   0.47427   0.92712   1.000
    O1381   O    0.40806   0.51940   0.93376   1.000
    O1382   O    0.38590   0.51974   0.91229   1.000
    C1383   C    0.39290   0.52608   0.92732   1.000
    O1384   O    0.43573   0.59508   0.98161   1.000
    O1385   O    0.41411   0.61711   0.98122   1.000
    C1386   C    0.42916   0.61017   0.97484   1.000
    O1387   O    0.56591   0.40649   0.98342   1.000
    O1388   O    0.58747   0.38439   0.98351   1.000
    C1389   C    0.57242   0.39127   0.97701   1.000
    O1390   O    0.56842   0.51746   0.90672   1.000
    O1391   O    0.59059   0.51701   0.88537   1.000
    C1392   C    0.57538   0.52368   0.89163   1.000
    O1393   O    0.43280   0.48263   0.90796   1.000
    O1394   O    0.41074   0.48292   0.88638   1.000
    C1395   C    0.42601   0.47639   0.89282   1.000
    O1396   O    0.51998   0.59231   0.93127   1.000
    O1397   O    0.52016   0.61407   0.90939   1.000
    C1398   C    0.52646   0.60745   0.92465   1.000
    O1399   O    0.48138   0.40836   0.93323   1.000
    O1400   O    0.48078   0.38624   0.91184   1.000
    C1401   C    0.47457   0.39324   0.92693   1.000
    O1402   O    0.59333   0.56707   0.98208   1.000
    O1403   O    0.61520   0.58877   0.98172   1.000
    C1404   C    0.60845   0.57361   0.97547   1.000
    O1405   O    0.40662   0.43454   0.98376   1.000
    O1406   O    0.38486   0.41274   0.98398   1.000
    C1407   C    0.39147   0.42784   0.97736   1.000
    Cu1408  Cu   0.50000   0.42259   0.92220   1.000
    Cu1409  Cu   0.49932   0.39609   0.89649   1.000
    Cu1410  Cu   0.50169   0.57758   0.92062   1.000
    Cu1411  Cu   0.50181   0.60366   0.89428   1.000
    Cu1412  Cu   0.42245   0.50092   0.92290   1.000
    Cu1413  Cu   0.39589   0.50130   0.89707   1.000
    Cu1414  Cu   0.57864   0.49932   0.92220   1.000
    Cu1415  Cu   0.60526   0.49874   0.89659   1.000
    O1416   O    0.51906   0.43402   0.09549   1.000
    O1417   O    0.51890   0.41241   0.11752   1.000
    C1418   C    0.52561   0.42735   0.11061   1.000
    O1419   O    0.48338   0.56933   0.09389   1.000
    O1420   O    0.48396   0.59094   0.11580   1.000
    C1421   C    0.47720   0.57595   0.10913   1.000
    O1422   O    0.40833   0.52078   0.06800   1.000
    O1423   O    0.38644   0.52151   0.08962   1.000
    C1424   C    0.39328   0.52764   0.07443   1.000
    O1425   O    0.59471   0.48149   0.06764   1.000
    O1426   O    0.61672   0.48138   0.08925   1.000
    C1427   C    0.60981   0.47484   0.07427   1.000
    O1428   O    0.56618   0.40656   0.02003   1.000
    O1429   O    0.58765   0.38438   0.01996   1.000
    C1430   C    0.57267   0.39130   0.02650   1.000
    O1431   O    0.43563   0.59566   0.01829   1.000
    O1432   O    0.41396   0.61766   0.01785   1.000
    C1433   C    0.42896   0.61088   0.02459   1.000
    O1434   O    0.43351   0.48430   0.09421   1.000
    O1435   O    0.41166   0.48489   0.11587   1.000
    C1436   C    0.42681   0.47818   0.10944   1.000
    O1437   O    0.56919   0.51844   0.09245   1.000
    O1438   O    0.59116   0.51843   0.11412   1.000
    C1439   C    0.57594   0.52491   0.10750   1.000
    O1440   O    0.48217   0.40911   0.06995   1.000
    O1441   O    0.48186   0.38736   0.09185   1.000
    C1442   C    0.47560   0.39400   0.07657   1.000
    O1443   O    0.52006   0.59459   0.06829   1.000
    O1444   O    0.52057   0.61635   0.09005   1.000
    C1445   C    0.52679   0.60964   0.07486   1.000
    O1446   O    0.40679   0.43465   0.02036   1.000
    O1447   O    0.38504   0.41284   0.02061   1.000
    C1448   C    0.39168   0.42803   0.02695   1.000
    O1449   O    0.59385   0.56741   0.01855   1.000
    O1450   O    0.61574   0.58909   0.01804   1.000
    C1451   C    0.60915   0.57400   0.02468   1.000
    O1452   O    0.51992   0.56848   0.09335   1.000
    O1453   O    0.52057   0.59014   0.11520   1.000
    C1454   C    0.52671   0.57491   0.10841   1.000
    O1455   O    0.48240   0.43444   0.09569   1.000
    O1456   O    0.48205   0.41286   0.11773   1.000
    C1457   C    0.47577   0.42804   0.11085   1.000
    O1458   O    0.59523   0.51808   0.06744   1.000
    O1459   O    0.61724   0.51805   0.08905   1.000
    C1460   C    0.61046   0.52450   0.07395   1.000
    O1461   O    0.40740   0.48417   0.06906   1.000
    O1462   O    0.38549   0.48485   0.09066   1.000
    C1463   C    0.39211   0.47803   0.07571   1.000
    O1464   O    0.56845   0.59337   0.01863   1.000
    O1465   O    0.59042   0.61497   0.01810   1.000
    C1466   C    0.57533   0.60852   0.02483   1.000
    O1467   O    0.43266   0.40919   0.02034   1.000
    O1468   O    0.41096   0.38733   0.02057   1.000
    C1469   C    0.42615   0.39402   0.02690   1.000
    O1470   O    0.56930   0.48200   0.09332   1.000
    O1471   O    0.59130   0.48200   0.11495   1.000
    C1472   C    0.57601   0.47568   0.10853   1.000
    O1473   O    0.43335   0.52082   0.09422   1.000
    O1474   O    0.41149   0.52142   0.11589   1.000
    C1475   C    0.42678   0.52754   0.10927   1.000
    O1476   O    0.48361   0.59495   0.06829   1.000
    O1477   O    0.48395   0.61664   0.09011   1.000
    C1478   C    0.47735   0.61016   0.07496   1.000
    O1479   O    0.51853   0.40797   0.07048   1.000
    O1480   O    0.51832   0.38626   0.09242   1.000
    C1481   C    0.52473   0.39266   0.07716   1.000
    O1482   O    0.59219   0.43175   0.01962   1.000
    O1483   O    0.61361   0.40950   0.01958   1.000
    C1484   C    0.60734   0.42484   0.02591   1.000
    O1485   O    0.41010   0.57009   0.01850   1.000
    O1486   O    0.38846   0.59212   0.01807   1.000
    C1487   C    0.39494   0.57693   0.02472   1.000
    Cu1488  Cu   0.50058   0.42359   0.08077   1.000
    Cu1489  Cu   0.50022   0.39760   0.10713   1.000
    Cu1490  Cu   0.50169   0.57968   0.07877   1.000
    Cu1491  Cu   0.50231   0.60568   0.10500   1.000
    Cu1492  Cu   0.42179   0.42409   0.00205   1.000
    Cu1493  Cu   0.39575   0.39787   0.00232   1.000
    Cu1494  Cu   0.57680   0.42136   0.00159   1.000
    Cu1495  Cu   0.60262   0.39473   0.00159   1.000
    Cu1496  Cu   0.42508   0.58048   0.00015   1.000
    Cu1497  Cu   0.39907   0.60691   0.99967   1.000
    Cu1498  Cu   0.57864   0.57801   0.00040   1.000
    Cu1499  Cu   0.60498   0.60401   0.99984   1.000
    Cu1500  Cu   0.42281   0.50247   0.07919   1.000
    Cu1501  Cu   0.39656   0.50321   0.10516   1.000
    Cu1502  Cu   0.57996   0.49999   0.07797   1.000
    Cu1503  Cu   0.60631   0.49998   0.10402   1.000
    Ts1504  Ts   0.27376   0.86709   0.86387   1.000
    Ts1505  Ts   0.36321   0.77608   0.86724   1.000
    Ts1506  Ts   0.36487   0.86808   0.77784   1.000
    Ts1507  Ts   0.77599   0.36943   0.86419   1.000
    Ts1508  Ts   0.36465   0.36467   0.27418   1.000
    Ts1509  Ts   0.27799   0.36507   0.36727   1.000
    Ts1510  Ts   0.36878   0.27626   0.36415   1.000
    Ts1511  Ts   0.86586   0.36885   0.77629   1.000
    Ts1512  Ts   0.86312   0.27648   0.86489   1.000
    Ts1513  Ts   0.86508   0.86920   0.27690   1.000
    Ts1514  Ts   0.77392   0.86815   0.36305   1.000
    Ts1515  Ts   0.86242   0.77652   0.36581   1.000
    Ts1516  Ts   0.63150   0.63614   0.27641   1.000
    Ts1517  Ts   0.72205   0.63187   0.36490   1.000
    Ts1518  Ts   0.63268   0.72401   0.36664   1.000
    Ts1519  Ts   0.63129   0.13374   0.77819   1.000
    Ts1520  Ts   0.72425   0.13773   0.86540   1.000
    Ts1521  Ts   0.63101   0.22293   0.86671   1.000
    Ts1522  Ts   0.13663   0.63392   0.77454   1.000
    Ts1523  Ts   0.22621   0.63242   0.86304   1.000
    Ts1524  Ts   0.13736   0.72361   0.86597   1.000
    Ts1525  Ts   0.12965   0.13524   0.27529   1.000
    Ts1526  Ts   0.22221   0.13181   0.36165   1.000
    Ts1527  Ts   0.13048   0.21959   0.36717   1.000
    Ts1528  Ts   0.63116   0.36441   0.72213   1.000
    Ts1529  Ts   0.72204   0.36592   0.63241   1.000
    Ts1530  Ts   0.63666   0.27294   0.63418   1.000
    Ts1531  Ts   0.63753   0.86783   0.22666   1.000
    Ts1532  Ts   0.72288   0.86868   0.13444   1.000
    Ts1533  Ts   0.63216   0.77837   0.13644   1.000
    Ts1534  Ts   0.13535   0.36402   0.22520   1.000
    Ts1535  Ts   0.22398   0.36375   0.13340   1.000
    Ts1536  Ts   0.13113   0.27629   0.13440   1.000
    Ts1537  Ts   0.13735   0.86671   0.72377   1.000
    Ts1538  Ts   0.22579   0.86302   0.63310   1.000
    Ts1539  Ts   0.13594   0.77457   0.63507   1.000
    Ts1540  Ts   0.36204   0.63101   0.72438   1.000
    Ts1541  Ts   0.27604   0.63868   0.63185   1.000
    Ts1542  Ts   0.36950   0.72341   0.63720   1.000
    Ts1543  Ts   0.36753   0.13550   0.22108   1.000
    Ts1544  Ts   0.27364   0.13577   0.13432   1.000
    Ts1545  Ts   0.36210   0.22624   0.13198   1.000
    Ts1546  Ts   0.86276   0.63236   0.22624   1.000
    Ts1547  Ts   0.77809   0.63209   0.13545   1.000
    Ts1548  Ts   0.86871   0.72133   0.13498   1.000
    Ts1549  Ts   0.86796   0.13678   0.72146   1.000
    Ts1550  Ts   0.77454   0.13798   0.63389   1.000
    Ts1551  Ts   0.86202   0.22645   0.63327   1.000
    Ts1552  Ts   0.36841   0.36290   0.72608   1.000
    Ts1553  Ts   0.36839   0.27649   0.63492   1.000
    Ts1554  Ts   0.27664   0.36573   0.63797   1.000
    Ts1555  Ts   0.36387   0.87026   0.22309   1.000
    Ts1556  Ts   0.37005   0.77701   0.13838   1.000
    Ts1557  Ts   0.27536   0.86194   0.13210   1.000
    Ts1558  Ts   0.86642   0.36853   0.22475   1.000
    Ts1559  Ts   0.86913   0.27671   0.13745   1.000
    Ts1560  Ts   0.77864   0.36745   0.13446   1.000
    Ts1561  Ts   0.86499   0.86789   0.72147   1.000
    Ts1562  Ts   0.86425   0.77378   0.63553   1.000
    Ts1563  Ts   0.77611   0.86440   0.63067   1.000
    Ts1564  Ts   0.63370   0.63734   0.72366   1.000
    Ts1565  Ts   0.63576   0.72080   0.62808   1.000
    Ts1566  Ts   0.72654   0.63243   0.63699   1.000
    Ts1567  Ts   0.63761   0.13250   0.22617   1.000
    Ts1568  Ts   0.63280   0.22330   0.13802   1.000
    Ts1569  Ts   0.72352   0.13245   0.13388   1.000
    Ts1570  Ts   0.13368   0.63178   0.22318   1.000
    Ts1571  Ts   0.13669   0.72343   0.13471   1.000
    Ts1572  Ts   0.22435   0.63135   0.13563   1.000
    Ts1573  Ts   0.13141   0.13813   0.72475   1.000
    Ts1574  Ts   0.13665   0.22281   0.63057   1.000
    Ts1575  Ts   0.22277   0.12961   0.63747   1.000
    Ts1576  Ts   0.36419   0.63445   0.27671   1.000
    Ts1577  Ts   0.36636   0.72323   0.36802   1.000
    Ts1578  Ts   0.27410   0.63758   0.36623   1.000
    Ts1579  Ts   0.36588   0.13645   0.77699   1.000
    Ts1580  Ts   0.36622   0.22701   0.86447   1.000
    Ts1581  Ts   0.27552   0.13744   0.86764   1.000
    Ts1582  Ts   0.86297   0.63206   0.77394   1.000
    Ts1583  Ts   0.86608   0.72378   0.86131   1.000
    Ts1584  Ts   0.77862   0.63086   0.86782   1.000
    Ts1585  Ts   0.86987   0.13679   0.27646   1.000
    Ts1586  Ts   0.86359   0.22342   0.36876   1.000
    Ts1587  Ts   0.77705   0.13041   0.36349   1.000
    Ts1588  Ts   0.63196   0.36498   0.27829   1.000
    Ts1589  Ts   0.63020   0.27567   0.36499   1.000
    Ts1590  Ts   0.72392   0.36185   0.36744   1.000
    Ts1591  Ts   0.63232   0.86518   0.77726   1.000
    Ts1592  Ts   0.63131   0.77628   0.86360   1.000
    Ts1593  Ts   0.72283   0.86453   0.86805   1.000
    Ts1594  Ts   0.13840   0.36829   0.77619   1.000
    Ts1595  Ts   0.13116   0.27695   0.86372   1.000
    Ts1596  Ts   0.22540   0.36214   0.86927   1.000
    Ts1597  Ts   0.12880   0.86205   0.27675   1.000
    Ts1598  Ts   0.13799   0.77485   0.36833   1.000
    Ts1599  Ts   0.22274   0.86920   0.36259   1.000
    Og1600  Og   0.06914   0.02891   0.11003   1.000
    Og1601  Og   0.92726   0.97028   0.11017   1.000
    Og1602  Og   0.02965   0.11126   0.06932   1.000
    Og1603  Og   0.96767   0.88775   0.07029   1.000
    Og1604  Og   0.11154   0.06896   0.02929   1.000
    Og1605  Og   0.88788   0.92990   0.02778   1.000
    Og1606  Og   0.96882   0.07180   0.10977   1.000
    Og1607  Og   0.02790   0.92761   0.11093   1.000
    Og1608  Og   0.10962   0.96826   0.07071   1.000
    Og1609  Og   0.88809   0.03094   0.06859   1.000
    Og1610  Og   0.92897   0.11228   0.02719   1.000
    Og1611  Og   0.06905   0.88572   0.03081   1.000
    Og1612  Og   0.92793   0.03060   0.10973   1.000
    Og1613  Og   0.06880   0.96869   0.11078   1.000
    Og1614  Og   0.02756   0.88654   0.07107   1.000
    Og1615  Og   0.96927   0.11226   0.06900   1.000
    Og1616  Og   0.88915   0.07159   0.02687   1.000
    Og1617  Og   0.10961   0.92645   0.03069   1.000
    Og1618  Og   0.96799   0.92872   0.11019   1.000
    Og1619  Og   0.02884   0.07090   0.10981   1.000
    Og1620  Og   0.88750   0.97070   0.06902   1.000
    Og1621  Og   0.11030   0.02783   0.07026   1.000
    Og1622  Og   0.92726   0.88859   0.02863   1.000
    Og1623  Og   0.07119   0.10984   0.02875   1.000
    Og1624  Og   0.07092   0.96794   0.88821   1.000
    Og1625  Og   0.93079   0.02986   0.88585   1.000
    Og1626  Og   0.97159   0.11177   0.92686   1.000
    Og1627  Og   0.02902   0.88626   0.92942   1.000
    Og1628  Og   0.10951   0.92688   0.97135   1.000
    Og1629  Og   0.88936   0.07141   0.96688   1.000
    Og1630  Og   0.03103   0.06991   0.88715   1.000
    Og1631  Og   0.97030   0.92770   0.88791   1.000
    Og1632  Og   0.11168   0.02772   0.92862   1.000
    Og1633  Og   0.88972   0.97049   0.92648   1.000
    Og1634  Og   0.07204   0.11007   0.96881   1.000
    Og1635  Og   0.92816   0.88798   0.96893   1.000
    Og1636  Og   0.93011   0.96961   0.88627   1.000
    Og1637  Og   0.07125   0.02799   0.88778   1.000
    Og1638  Og   0.96937   0.88694   0.92836   1.000
    Og1639  Og   0.03152   0.11091   0.92718   1.000
    Og1640  Og   0.88840   0.92955   0.96770   1.000
    Og1641  Og   0.11198   0.06894   0.96932   1.000
    Og1642  Og   0.02989   0.92697   0.88842   1.000
    Og1643  Og   0.97134   0.07124   0.88618   1.000
    Og1644  Og   0.88988   0.03015   0.92614   1.000
    Og1645  Og   0.11028   0.96798   0.93010   1.000
    Og1646  Og   0.06956   0.88557   0.97087   1.000
    Og1647  Og   0.93004   0.11211   0.96718   1.000
    Og1648  Og   0.97118   0.42957   0.38985   1.000
    Og1649  Og   0.02969   0.57253   0.39022   1.000
    Og1650  Og   0.88782   0.47053   0.42939   1.000
    Og1651  Og   0.11152   0.53030   0.42959   1.000
    Og1652  Og   0.92904   0.38875   0.46922   1.000
    Og1653  Og   0.07150   0.61197   0.47115   1.000
    Og1654  Og   0.92972   0.52996   0.38961   1.000
    Og1655  Og   0.07072   0.47153   0.38805   1.000
    Og1656  Og   0.03180   0.38852   0.42919   1.000
    Og1657  Og   0.96974   0.61274   0.43062   1.000
    Og1658  Og   0.88869   0.57136   0.47054   1.000
    Og1659  Og   0.11354   0.42960   0.46876   1.000
    Og1660  Og   0.97033   0.57139   0.39041   1.000
    Og1661  Og   0.03099   0.42939   0.38854   1.000
    Og1662  Og   0.11192   0.47078   0.42783   1.000
    Og1663  Og   0.88852   0.53057   0.42933   1.000
    Og1664  Og   0.92836   0.61257   0.47099   1.000
    Og1665  Og   0.07336   0.38914   0.46962   1.000
    Og1666  Og   0.07092   0.53165   0.38881   1.000
    Og1667  Og   0.92925   0.47004   0.38968   1.000
    Og1668  Og   0.02963   0.61252   0.43098   1.000
    Og1669  Og   0.97128   0.38870   0.42931   1.000
    Og1670  Og   0.11203   0.57096   0.47084   1.000
    Og1671  Og   0.88770   0.42895   0.46981   1.000
    Og1672  Og   0.03094   0.42850   0.61052   1.000
    Og1673  Og   0.97090   0.56942   0.61126   1.000
    Og1674  Og   0.88871   0.52887   0.57079   1.000
    Og1675  Og   0.11341   0.46977   0.57093   1.000
    Og1676  Og   0.07376   0.38920   0.52930   1.000
    Og1677  Og   0.92928   0.61141   0.53057   1.000
    Og1678  Og   0.92979   0.46875   0.61095   1.000
    Og1679  Og   0.07207   0.52888   0.61173   1.000
    Og1680  Og   0.97175   0.38800   0.56901   1.000
    Og1681  Og   0.03029   0.61061   0.57111   1.000
    Og1682  Og   0.88828   0.42810   0.52984   1.000
    Og1683  Og   0.11254   0.57083   0.53053   1.000
    Og1684  Og   0.03041   0.56934   0.61143   1.000
    Og1685  Og   0.97120   0.42804   0.60986   1.000
    Og1686  Og   0.11278   0.52940   0.57122   1.000
    Og1687  Og   0.88908   0.46904   0.57083   1.000
    Og1688  Og   0.07167   0.61141   0.53070   1.000
    Og1689  Og   0.92972   0.38826   0.52886   1.000
    Og1690  Og   0.07219   0.46919   0.61118   1.000
    Og1691  Og   0.92970   0.52871   0.61131   1.000
    Og1692  Og   0.97093   0.61058   0.57091   1.000
    Og1693  Og   0.03189   0.38884   0.56942   1.000
    Og1694  Og   0.11407   0.42995   0.52894   1.000
    Og1695  Og   0.88852   0.57080   0.53049   1.000
    Og1696  Og   0.47035   0.92941   0.38875   1.000
    Og1697  Og   0.52833   0.07091   0.38828   1.000
    Og1698  Og   0.38792   0.96936   0.42838   1.000
    Og1699  Og   0.61121   0.03178   0.42978   1.000
    Og1700  Og   0.42953   0.88801   0.46956   1.000
    Og1701  Og   0.56882   0.11119   0.47093   1.000
    Og1702  Og   0.42773   0.02979   0.38802   1.000
    Og1703  Og   0.57122   0.97160   0.38932   1.000
    Og1704  Og   0.53094   0.88963   0.42944   1.000
    Og1705  Og   0.46851   0.11072   0.42933   1.000
    Og1706  Og   0.38703   0.06950   0.46979   1.000
    Og1707  Og   0.61165   0.93103   0.47160   1.000
    Og1708  Og   0.46830   0.07122   0.38795   1.000
    Og1709  Og   0.53014   0.93073   0.38918   1.000
    Og1710  Og   0.61164   0.97190   0.43030   1.000
    Og1711  Og   0.38706   0.02933   0.42813   1.000
    Og1712  Og   0.42774   0.10964   0.47044   1.000
    Og1713  Og   0.57148   0.89026   0.47094   1.000
    Og1714  Og   0.57054   0.03109   0.38891   1.000
    Og1715  Og   0.42848   0.96973   0.38807   1.000
    Og1716  Og   0.52841   0.11104   0.42902   1.000
    Og1717  Og   0.47099   0.88902   0.42921   1.000
    Og1718  Og   0.61042   0.07221   0.47119   1.000
    Og1719  Og   0.38879   0.92839   0.46950   1.000
    Og1720  Og   0.52985   0.92893   0.61197   1.000
    Og1721  Og   0.46813   0.07034   0.61333   1.000
    Og1722  Og   0.38774   0.02885   0.57184   1.000
    Og1723  Og   0.61011   0.97155   0.57194   1.000
    Og1724  Og   0.57146   0.88922   0.53068   1.000
    Og1725  Og   0.42702   0.10957   0.53014   1.000
    Og1726  Og   0.42848   0.96882   0.61224   1.000
    Og1727  Og   0.56942   0.03097   0.61236   1.000
    Og1728  Og   0.47034   0.88826   0.57111   1.000
    Og1729  Og   0.52697   0.11111   0.57163   1.000
    Og1730  Og   0.38892   0.92865   0.52926   1.000
    Og1731  Og   0.61040   0.07180   0.53104   1.000
    Og1732  Og   0.52813   0.07169   0.61319   1.000
    Og1733  Og   0.47008   0.92840   0.61172   1.000
    Og1734  Og   0.61030   0.03093   0.57205   1.000
    Og1735  Og   0.38878   0.96945   0.57050   1.000
    Og1736  Og   0.56838   0.11135   0.53090   1.000
    Og1737  Og   0.42970   0.88831   0.52960   1.000
    Og1738  Og   0.56979   0.97093   0.61212   1.000
    Og1739  Og   0.42806   0.02865   0.61290   1.000
    Og1740  Og   0.46722   0.11053   0.57208   1.000
    Og1741  Og   0.53024   0.88872   0.57123   1.000
    Og1742  Og   0.61106   0.93060   0.53118   1.000
    Og1743  Og   0.38721   0.06895   0.52994   1.000
    Og1744  Og   0.47014   0.43015   0.88890   1.000
    Og1745  Og   0.53163   0.57028   0.88723   1.000
    Og1746  Og   0.38861   0.47150   0.93048   1.000
    Og1747  Og   0.61196   0.52928   0.92942   1.000
    Og1748  Og   0.42903   0.39075   0.97218   1.000
    Og1749  Og   0.57150   0.61100   0.97003   1.000
    Og1750  Og   0.42951   0.53053   0.88907   1.000
    Og1751  Og   0.57176   0.46899   0.88925   1.000
    Og1752  Og   0.52909   0.38858   0.92997   1.000
    Og1753  Og   0.47240   0.61162   0.92775   1.000
    Og1754  Og   0.39130   0.57301   0.97074   1.000
    Og1755  Og   0.61010   0.42804   0.97162   1.000
    Og1756  Og   0.47151   0.57041   0.88773   1.000
    Og1757  Og   0.53028   0.42849   0.88885   1.000
    Og1758  Og   0.61149   0.46901   0.93042   1.000
    Og1759  Og   0.38982   0.53133   0.93057   1.000
    Og1760  Og   0.43235   0.61323   0.96954   1.000
    Og1761  Og   0.56927   0.38813   0.97176   1.000
    Og1762  Og   0.57228   0.52891   0.88832   1.000
    Og1763  Og   0.42924   0.47128   0.88952   1.000
    Og1764  Og   0.53158   0.61066   0.92795   1.000
    Og1765  Og   0.46936   0.39016   0.93028   1.000
    Og1766  Og   0.61161   0.57040   0.97026   1.000
    Og1767  Og   0.38827   0.43102   0.97211   1.000
    Og1768  Og   0.53097   0.43048   0.11365   1.000
    Og1769  Og   0.47198   0.57279   0.11237   1.000
    Og1770  Og   0.39022   0.53289   0.07112   1.000
    Og1771  Og   0.61284   0.46950   0.07113   1.000
    Og1772  Og   0.56949   0.38815   0.03175   1.000
    Og1773  Og   0.43204   0.61402   0.02990   1.000
    Og1774  Og   0.42999   0.47302   0.11277   1.000
    Og1775  Og   0.57276   0.53012   0.11071   1.000
    Og1776  Og   0.47046   0.39079   0.07327   1.000
    Og1777  Og   0.53201   0.61275   0.07159   1.000
    Og1778  Og   0.38850   0.43129   0.03215   1.000
    Og1779  Og   0.61245   0.57081   0.02984   1.000
    Og1780  Og   0.53193   0.57158   0.11151   1.000
    Og1781  Og   0.47057   0.43138   0.11395   1.000
    Og1782  Og   0.61360   0.52973   0.07071   1.000
    Og1783  Og   0.38885   0.47281   0.07257   1.000
    Og1784  Og   0.57227   0.61180   0.03006   1.000
    Og1785  Og   0.42943   0.39081   0.03208   1.000
    Og1786  Og   0.57278   0.47058   0.11187   1.000
    Og1787  Og   0.43011   0.53268   0.11246   1.000
    Og1788  Og   0.47216   0.61342   0.07174   1.000
    Og1789  Og   0.52978   0.38930   0.07385   1.000
    Og1790  Og   0.61071   0.42800   0.03100   1.000
    Og1791  Og   0.39164   0.57379   0.02990   1.000
loop_
    _geom_bond_atom_site_label_1
    _geom_bond_atom_site_label_2
    _geom_bond_distance
    _geom_bond_site_symmetry_2
    _ccdc_geom_bond_type
    C34    C35       1.38625      .   S
    C34    C33       1.39568      .   S
    C185   C184      1.38858      .   S
    C185   C186      1.38500      .   S
    H187   C184      1.08159      .   S
    C107   C108      1.38368      .   S
    C107   C106      1.38881      .   S
    C705   C706      1.38772      .   S
    C705   C704      1.38839      .   S
    C84    C85       1.39458      .   S
    C84    C83       1.38646      .   S
    C809   C810      1.38680      .   S
    C809   C808      1.38802      .   S
    C627   C626      1.39034      .   S
    C627   C628      1.38484      .   S
    C731   C730      1.38835      .   S
    C731   C732      1.39472      .   S
    H37    C35       1.07829      .   S
    H812   C810      1.07949      .   S
    H708   C706      1.07988      .   S
    C184   N183      1.34697      .   S
    H36    C33       1.08059      .   S
    H110   C108      1.07980      .   S
    H87    C85       1.08074      .   S
    H629   C626      1.08077      .   S
    H109   C106      1.08002      .   S
    C35    N15       1.34066      .   S
    H733   C730      1.07973      .   S
    H86    C83       1.07770      .   S
    H630   C628      1.08020      .   S
    H707   C704      1.08004      .   S
    C33    N32       1.35121      .   S
    H734   C732      1.08020      .   S
    H811   C808      1.07980      .   S
    C810   N806      1.34489      .   S
    C706   N702      1.34663      .   S
    C108   N104      1.34283      .   S
    C85    N81       1.35063      .   S
    C106   N105      1.34666      .   S
    C626   N625      1.34952      .   S
    C83    N82       1.34177      .   S
    C704   N703      1.34796      .   S
    C628   N624      1.34290      .   S
    C730   N729      1.34245      .   S
    C808   N807      1.34684      .   S
    C732   N728      1.34879      .   S
    C186   H188      1.08097      .   S
    C186   N182      1.34339      .   S
    N183   N182      1.31270      .   S
    N183   Cu189     1.94528      .   S
    N15    N32       1.31279      .   S
    N15    Cu39      1.93443      .   S
    N32    Cu38      1.95963      .   S
    N104   N105      1.31229      .   S
    N104   Cu112     1.93617      .   S
    N702   N703      1.31414      .   S
    N702   Cu710     1.94939      .   S
    N806   N807      1.31387      .   S
    N806   Cu814     1.94808      .   S
    N81    N82       1.31243      .   S
    N81    Cu89      1.96328      .   S
    N105   Cu111     1.94467      .   S
    N82    Cu88      1.93741      .   S
    N703   Cu709     1.94992      .   S
    N729   N728      1.31235      .   S
    N729   Cu735     1.93182      .   S
    N625   N624      1.31416      .   S
    N625   Cu631     1.95823      .   S
    N728   Cu736     1.95914      .   S
    N624   Cu632     1.94479      .   S
    N807   Cu813     1.94645      .   S
    N182   Cu190     1.93874      .   S
    Cu189  N192      1.94425      .   S
    Cu39   N50       1.95845      .   S
    Cu735  N738      1.93300      .   S
    Cu814  H830      2.06504      .   S
    Cu814  N824      1.97124      .   S
    Cu814  H831      2.06560      .   S
    Cu710  H726      2.06342      .   S
    Cu710  N720      1.97367      .   S
    Cu710  H727      2.06680      .   S
    Cu89   H31       2.05681      .   S
    Cu89   N99       1.98563      .   S
    Cu89   H103      2.05911      .   S
    Cu112  N122      1.95782      .   S
    Cu88   N91       1.93858      .   S
    Cu111  N114      1.94130      .   S
    Cu632  H648      2.05372      .   S
    Cu632  N642      1.96997      .   S
    Cu632  H649      2.05563      .   S
    Cu38   N41       1.95786      .   S
    Cu736  H752      2.06239      .   S
    Cu736  H753      2.06409      .   S
    Cu736  N746      1.98167      .   S
    Cu631  N634      1.95952      .   S
    Cu709  N712      1.94998      .   S
    Cu813  N816      1.94723      .   S
    H206   Cu190     2.04248      .   S
    Cu190  N200      1.96355      .   S
    H16    Cu40      2.05607      .   S
    H128   Cu113     2.04985      .   S
    H198   C196      1.07984      .   S
    H828   C825      1.08035      .   S
    H54    C51       1.07928      .   S
    H724   C721      1.08011      .   S
    H744   C742      1.07990      .   S
    H97    C95       1.07849      .   S
    H120   C118      1.07960      .   S
    H126   C123      1.07945      .   S
    H29    C100      1.08068      .   S
    H646   C643      1.08021      .   S
    N192   C196      1.34438      .   S
    N192   N193      1.31375      .   S
    H48    C45       1.08039      .   S
    H640   C638      1.08020      .   S
    H750   C747      1.08072      .   S
    H718   C716      1.07982      .   S
    H822   C820      1.07981      .   S
    N824   C825      1.34655      .   S
    N824   N823      1.31889      .   S
    N50    C51       1.34408      .   S
    N50    N49       1.31725      .   S
    N720   C721      1.34793      .   S
    N720   N719      1.31886      .   S
    N91    C95       1.34392      .   S
    N91    N92       1.31205      .   S
    C196   C195      1.38734      .   S
    N738   C742      1.34355      .   S
    N738   N739      1.31162      .   S
    N99    C100      1.35051      .   S
    N99    N98       1.32051      .   S
    N114   C118      1.34469      .   S
    N114   N115      1.31468      .   S
    N122   C123      1.34196      .   S
    N122   N121      1.31921      .   S
    H17    Cu40      2.05861      .   S
    C825   C826      1.38629      .   S
    N41    C45       1.34975      .   S
    N41    N42       1.31394      .   S
    N642   C643      1.34875      .   S
    N642   N641      1.31718      .   S
    C51    C52       1.38356      .   S
    C721   C722      1.38733      .   S
    N634   C638      1.35106      .   S
    N634   N635      1.31308      .   S
    C95    C94       1.38461      .   S
    N746   C747      1.34856      .   S
    N746   N745      1.32018      .   S
    H129   Cu113     2.05419      .   S
    N712   C716      1.34760      .   S
    N712   N713      1.31346      .   S
    C742   C741      1.38885      .   S
    N816   C820      1.34676      .   S
    N816   N817      1.31244      .   S
    H207   Cu191     1.99795      .   S
    C118   C117      1.38562      .   S
    H204   C201      1.08055      .   S
    C123   C124      1.38174      .   S
    C100   C101      1.38965      .   S
    N200   C201      1.34275      .   S
    N200   N199      1.31835      .   S
    C643   C644      1.38577      .   S
    C45    C44       1.39410      .   S
    C747   C748      1.38817      .   S
    C638   C637      1.39575      .   S
    C716   C715      1.38889      .   S
    C820   C819      1.39142      .   S
    C201   C202      1.38500      .   S
    N193   Cu191     1.95704      .   S
    N193   C194      1.34711      .   S
    Cu191  N199      1.97565      .   S
    N823   Cu815     1.97061      .   S
    N823   C827      1.34562      .   S
    N92    Cu90      1.94680      .   S
    N92    C93       1.34768      .   S
    N199   C203      1.34865      .   S
    N719   Cu711     1.97004      .   S
    N719   C723      1.34592      .   S
    N49    Cu40      1.96811      .   S
    N49    C53       1.34755      .   S
    N98    Cu90      1.96808      .   S
    N98    C102      1.34370      .   S
    N115   Cu113     1.95705      .   S
    N115   C116      1.34712      .   S
    N739   Cu737     1.95410      .   S
    N739   C740      1.34673      .   S
    N42    Cu40      1.94186      .   S
    N42    C43       1.34270      .   S
    N641   Cu633     1.95835      .   S
    N641   C645      1.34424      .   S
    N121   Cu113     1.98120      .   S
    N121   C125      1.34975      .   S
    Cu815  N817      1.94731      .   S
    N745   Cu737     1.97412      .   S
    N745   C749      1.34569      .   S
    N817   C818      1.34476      .   S
    N635   Cu633     1.93354      .   S
    N635   C636      1.34064      .   S
    Cu711  N713      1.94492      .   S
    N713   C714      1.34580      .   S
    C195   C194      1.39107      .   S
    C826   C827      1.38660      .   S
    C94    C93       1.38718      .   S
    C722   C723      1.38642      .   S
    C52    C53       1.38708      .   S
    C117   C116      1.38879      .   S
    C741   C740      1.39276      .   S
    C101   C102      1.38413      .   S
    C644   C645      1.38201      .   S
    C124   C125      1.38912      .   S
    C44    C43       1.38795      .   S
    C194   H197      1.08070      .   S
    C202   C203      1.39114      .   S
    C748   C749      1.38622      .   S
    C637   C636      1.38626      .   S
    C819   C818      1.38967      .   S
    C715   C714      1.38640      .   S
    C203   H205      1.08059      .   S
    C827   H829      1.07944      .   S
    C93    H96       1.08062      .   S
    C723   H725      1.08014      .   S
    C53    H55       1.07991      .   S
    C102   H30       1.07928      .   S
    C116   H119      1.08106      .   S
    C645   H647      1.07969      .   S
    C740   H743      1.07999      .   S
    C43    H46       1.07952      .   S
    C125   H127      1.08066      .   S
    C749   H751      1.07967      .   S
    C818   H821      1.07981      .   S
    C636   H639      1.07929      .   S
    C714   H717      1.07965      .   S
    O1226  C1227     1.27115      .   S
    O1226  Cu1245    1.85856      .   S
    O1187  C1188     1.27033      .   S
    O1187  Cu1245    1.85503  1_545   S
    O1022  C1023     1.27145      .   S
    O1022  Cu1079    1.85525      .   S
    O1205  C1206     1.27051      .   S
    O1205  Cu1243    1.85764      .   S
    O1172  C1173     1.27176      .   S
    O1172  Cu1243    1.85695      .   S
    O1055  C1056     1.26928      .   S
    O1055  Cu1079    1.85191      .   S
    O1040  C1041     1.26997      .   S
    O1040  Cu1073    1.85532      .   S
    O1169  C1170     1.27065      .   S
    O1169  Cu1241    1.85243      .   S
    O1223  C1224     1.27100      .   S
    O1223  Cu1247    1.85748      .   S
    O1208  C1209     1.27017      .   S
    O1208  Cu1241    1.85069      .   S
    O1019  C1020     1.27096      .   S
    O1019  Cu1077    1.85462      .   S
    O1058  C1059     1.27173      .   S
    O1058  Cu1077    1.86102      .   S
    O1190  C1191     1.27063      .   S
    O1190  Cu1247    1.85667  1_565   S
    O1001  C1002     1.27193      .   S
    O1001  Cu1073    1.85480  1_655   S
    O1004  C1005     1.26942      .   S
    O1004  Cu1075    1.84386  1_455   S
    O1037  C1038     1.27138      .   S
    O1037  Cu1075    1.85575      .   S
    C1206  O1204     1.27176      .   S
    C1188  O1186     1.26988      .   S
    C1227  O1225     1.27051      .   S
    C1023  O1021     1.27002      .   S
    C1173  O1171     1.26927      .   S
    C1041  O1039     1.27245      .   S
    C1056  O1054     1.27177      .   S
    C1170  O1168     1.27091      .   S
    C1224  O1222     1.27017      .   S
    C1209  O1207     1.27012      .   S
    C1191  O1189     1.27035      .   S
    C1020  O1018     1.27024      .   S
    C1059  O1057     1.27067      .   S
    C1002  O1000     1.26979      .   S
    C1005  O1003     1.27126      .   S
    C1038  O1036     1.26923      .   S
    Cu1245 O1214     1.85812  1_565   S
    Cu1245 O1175     1.85617      .   S
    Cu1079 O1043     1.85110      .   S
    Cu1079 O1010     1.85587      .   S
    Cu1243 O1229     1.85682      .   S
    Cu1243 O1196     1.85722      .   S
    Cu1241 O1193     1.85337      .   S
    Cu1241 O1232     1.85151      .   S
    Cu1077 O1046     1.86098      .   S
    Cu1077 O1007     1.85541      .   S
    Cu1073 O1025     1.85693      .   S
    Cu1073 O1064     1.85405  1_455   S
    Cu1247 O1178     1.85708      .   S
    Cu1247 O1211     1.85841  1_545   S
    Cu1075 O1028     1.84520      .   S
    Cu1075 O1061     1.85638  1_655   S
    O1204  Cu1242    1.85657      .   S
    O1225  Cu1244    1.85188      .   S
    O1186  Cu1244    1.85104  1_545   S
    O1171  Cu1242    1.84683      .   S
    O1021  Cu1078    1.84969      .   S
    O1054  Cu1078    1.85636      .   S
    O1039  Cu1072    1.85844      .   S
    O1168  Cu1240    1.85640      .   S
    O1222  Cu1246    1.84998      .   S
    O1207  Cu1240    1.85175      .   S
    O1189  Cu1246    1.85054  1_565   S
    O1057  Cu1076    1.85472      .   S
    O1018  Cu1076    1.85213      .   S
    O1000  Cu1072    1.85197  1_655   S
    O1003  Cu1074    1.85789  1_455   S
    O1036  Cu1074    1.85007      .   S
    O1043  C1044     1.27033      .   S
    O1214  C1215     1.27099      .   S
    O1175  C1176     1.27044      .   S
    O1229  C1230     1.27096      .   S
    O1010  C1011     1.27127      .   S
    O1046  C1047     1.27147      .   S
    O1025  C1026     1.27048      .   S
    O1193  C1194     1.27013      .   S
    O1007  C1008     1.27080      .   S
    O1196  C1197     1.27130      .   S
    O1232  C1233     1.27074      .   S
    O1064  C1065     1.27119      .   S
    O1178  C1179     1.27126      .   S
    O1211  C1212     1.27095      .   S
    O1028  C1029     1.26902      .   S
    O1061  C1062     1.27156      .   S
    Cu1244 O1213     1.85098  1_565   S
    Cu1244 O1174     1.85063      .   S
    Cu1242 O1228     1.85672      .   S
    Cu1242 O1195     1.84646      .   S
    Cu1078 O1042     1.85614      .   S
    Cu1078 O1009     1.84911      .   S
    Cu1240 O1192     1.85554      .   S
    Cu1240 O1231     1.85065      .   S
    Cu1072 O1024     1.85272      .   S
    Cu1072 O1063     1.85969  1_455   S
    Cu1246 O1177     1.85114      .   S
    Cu1246 O1210     1.84895  1_545   S
    Cu1076 O1006     1.85257      .   S
    Cu1076 O1045     1.85373      .   S
    Cu1074 O1027     1.85794      .   S
    Cu1074 O1060     1.84981  1_655   S
    C1044  O1042     1.27133      .   S
    C1215  O1213     1.27001      .   S
    C1176  O1174     1.27068      .   S
    C1230  O1228     1.27068      .   S
    C1026  O1024     1.27103      .   S
    C1197  O1195     1.26956      .   S
    C1233  O1231     1.26971      .   S
    C1047  O1045     1.27069      .   S
    C1194  O1192     1.27180      .   S
    C1008  O1006     1.27045      .   S
    C1011  O1009     1.26964      .   S
    C1065  O1063     1.27117      .   S
    C1179  O1177     1.27044      .   S
    C1212  O1210     1.27016      .   S
    C1029  O1027     1.27101      .   S
    C1062  O1060     1.26976      .   S
    C1035  O1034     1.27124      .   S
    C1035  O1033     1.27100      .   S
    C1014  O1013     1.27177      .   S
    C1014  O1012     1.27071      .   S
    C1239  O1237     1.27094      .   S
    C1239  O1238     1.27057      .   S
    C1182  O1181     1.27102      .   S
    C1182  O1180     1.27077      .   S
    C1053  O1051     1.26966      .   S
    C1053  O1052     1.27013      .   S
    C1071  O1070     1.27134      .   S
    C1071  O1069     1.27022      .   S
    C1200  O1198     1.27209      .   S
    C1200  O1199     1.26922      .   S
    C1218  O1217     1.27068      .   S
    C1218  O1216     1.26958      .   S
    C1032  O1030     1.26938      .   S
    C1032  O1031     1.27191      .   S
    C1068  O1067     1.27130      .   S
    C1068  O1066     1.26974      .   S
    C1050  O1048     1.27152      .   S
    C1050  O1049     1.27025      .   S
    C1221  O1219     1.26892      .   S
    C1221  O1220     1.27132      .   S
    C1185  O1183     1.26958      .   S
    C1185  O1184     1.27109      .   S
    C1017  O1016     1.27047      .   S
    C1017  O1015     1.27063      .   S
    C1236  O1234     1.27119      .   S
    C1236  O1235     1.27041      .   S
    C1203  O1201     1.27039      .   S
    C1203  O1202     1.27021      .   S
    O1034  Cu1159    1.85946      .   S
    O1033  Cu1158    1.85263      .   S
    O1013  Cu1157    1.86095      .   S
    O1012  Cu1156    1.85487      .   S
    O1237  Cu1324    1.85419      .   S
    O1051  Cu1158    1.85077      .   S
    O1052  Cu1159    1.85217      .   S
    O1181  Cu1325    1.85959      .   S
    O1238  Cu1325    1.85137      .   S
    O1180  Cu1324    1.85280      .   S
    O1070  Cu1157    1.85994      .   S
    O1069  Cu1156    1.84943      .   S
    O1198  Cu1328    1.86003      .   S
    O1199  Cu1329    1.84564      .   S
    O1217  Cu1329    1.84915      .   S
    O1216  Cu1328    1.85239      .   S
    O1030  Cu1160    1.84836      .   S
    O1048  Cu1160    1.85374      .   S
    O1067  Cu1163    1.85933      .   S
    O1031  Cu1161    1.85968      .   S
    O1066  Cu1162    1.84767      .   S
    O1016  Cu1163    1.85582      .   S
    O1015  Cu1162    1.85272      .   S
    O1219  Cu1326    1.84749      .   S
    O1183  Cu1330    1.85324      .   S
    O1049  Cu1161    1.85544      .   S
    O1220  Cu1327    1.85133      .   S
    O1234  Cu1330    1.85579      .   S
    O1184  Cu1331    1.85304      .   S
    O1201  Cu1326    1.85431      .   S
    O1235  Cu1331    1.85469      .   S
    O1202  Cu1327    1.85006      .   S
    Cu1159 O1147     1.85285      .   S
    Cu1159 O1093     1.85946      .   S
    Cu1158 O1146     1.85203      .   S
    Cu1158 O1092     1.85204      .   S
    Cu1157 O1132     1.85917      .   S
    Cu1157 O1111     1.86198      .   S
    Cu1156 O1131     1.84927      .   S
    Cu1156 O1110     1.85432      .   S
    Cu1324 O1278     1.85239      .   S
    Cu1324 O1299     1.85296      .   S
    Cu1325 O1279     1.85759      .   S
    Cu1325 O1300     1.85155      .   S
    Cu1329 O1318     1.85043      .   S
    Cu1329 O1264     1.84519      .   S
    Cu1328 O1317     1.85103      .   S
    Cu1328 O1263     1.85996      .   S
    Cu1160 O1149     1.85412      .   S
    Cu1160 O1095     1.84682      .   S
    Cu1162 O1113     1.85301      .   S
    Cu1162 O1128     1.84726      .   S
    Cu1163 O1114     1.85490      .   S
    Cu1163 O1129     1.85955      .   S
    Cu1161 O1150     1.85532      .   S
    Cu1161 O1096     1.85964      .   S
    Cu1326 O1260     1.85484      .   S
    Cu1326 O1314     1.84706      .   S
    Cu1330 O1296     1.85691      .   S
    Cu1330 O1281     1.85196      .   S
    Cu1327 O1261     1.85127      .   S
    Cu1327 O1315     1.85218      .   S
    Cu1331 O1297     1.85541      .   S
    Cu1331 O1282     1.85424      .   S
    O1147  C1148     1.27060      .   S
    O1146  C1148     1.27016      .   S
    O1131  C1133     1.26943      .   S
    O1132  C1133     1.27234      .   S
    O1092  C1094     1.27009      .   S
    O1278  C1280     1.27012      .   S
    O1093  C1094     1.27197      .   S
    O1279  C1280     1.27169      .   S
    O1299  C1301     1.27034      .   S
    O1300  C1301     1.27049      .   S
    O1110  C1112     1.27125      .   S
    O1111  C1112     1.27166      .   S
    O1318  C1319     1.26948      .   S
    O1317  C1319     1.27080      .   S
    O1264  C1265     1.26943      .   S
    O1263  C1265     1.27120      .   S
    O1149  C1151     1.27053      .   S
    O1095  C1097     1.27014      .   S
    O1113  C1115     1.27059      .   S
    O1114  C1115     1.27082      .   S
    O1128  C1130     1.27026      .   S
    O1150  C1151     1.27066      .   S
    O1260  C1262     1.27099      .   S
    O1129  C1130     1.27090      .   S
    O1261  C1262     1.26976      .   S
    O1096  C1097     1.27133      .   S
    O1296  C1298     1.27082      .   S
    O1281  C1283     1.27115      .   S
    O1314  C1316     1.26958      .   S
    O1297  C1298     1.27136      .   S
    O1282  C1283     1.26990      .   S
    O1315  C1316     1.27023      .   S
    O1104  C1106     1.27112      .   S
    O1104  Cu1152    1.85779  1_655   S
    O1143  C1145     1.27040      .   S
    O1143  Cu1152    1.85547      .   S
    O1125  C1127     1.26984      .   S
    O1125  Cu1164    1.85327      .   S
    O1086  C1088     1.27038      .   S
    O1086  Cu1164    1.85224      .   S
    O1140  C1142     1.27051      .   S
    O1140  Cu1154    1.85218  1_655   S
    O1107  C1109     1.27023      .   S
    O1107  Cu1154    1.85321      .   S
    O1089  C1091     1.27040      .   S
    O1089  Cu1166    1.85200      .   S
    O1293  C1295     1.26948      .   S
    O1293  Cu1332    1.84914      .   S
    O1122  C1124     1.27023      .   S
    O1122  Cu1166    1.84893      .   S
    O1272  C1274     1.27015      .   S
    O1272  Cu1320    1.85246      .   S
    O1311  C1313     1.27054      .   S
    O1311  Cu1320    1.85037      .   S
    O1257  C1259     1.26977      .   S
    O1257  Cu1334    1.85064  1_565   S
    O1275  C1277     1.26970      .   S
    O1275  Cu1322    1.84952      .   S
    O1254  C1256     1.27053      .   S
    O1254  Cu1332    1.85134  1_545   S
    O1290  C1292     1.27100      .   S
    O1290  Cu1334    1.85379      .   S
    O1308  C1310     1.27007      .   S
    O1308  Cu1322    1.85165      .   S
    C1106  O1105     1.27070      .   S
    C1145  O1144     1.27062      .   S
    C1295  O1294     1.27163      .   S
    C1127  O1126     1.27109      .   S
    C1088  O1087     1.27117      .   S
    C1142  O1141     1.27008      .   S
    C1091  O1090     1.27052      .   S
    C1109  O1108     1.26919      .   S
    C1274  O1273     1.27082      .   S
    C1313  O1312     1.27012      .   S
    C1124  O1123     1.27110      .   S
    C1277  O1276     1.27199      .   S
    C1259  O1258     1.26917      .   S
    C1256  O1255     1.27029      .   S
    C1292  O1291     1.26955      .   S
    C1310  O1309     1.27119      .   S
    Cu1152 O1119     1.85548  1_455   S
    Cu1152 O1080     1.85686      .   S
    Cu1164 O1098     1.85154      .   S
    Cu1164 O1137     1.85249      .   S
    Cu1154 O1083     1.85285  1_455   S
    Cu1154 O1116     1.85335      .   S
    Cu1166 O1134     1.84852      .   S
    Cu1166 O1101     1.85138      .   S
    Cu1320 O1287     1.85114      .   S
    Cu1320 O1248     1.85158      .   S
    Cu1334 O1302     1.85339  1_545   S
    Cu1334 O1269     1.85109      .   S
    Cu1332 O1266     1.85192      .   S
    Cu1332 O1305     1.84935  1_565   S
    Cu1322 O1251     1.84792      .   S
    Cu1322 O1284     1.85040      .   S
    O1105  Cu1153    1.85092  1_655   S
    O1144  Cu1153    1.85054      .   S
    O1294  Cu1333    1.85524      .   S
    O1126  Cu1165    1.85225      .   S
    O1087  Cu1165    1.85726      .   S
    O1141  Cu1155    1.84809  1_655   S
    O1273  Cu1321    1.85695      .   S
    O1312  Cu1321    1.84907      .   S
    O1108  Cu1155    1.84864      .   S
    O1090  Cu1167    1.85643      .   S
    O1123  Cu1167    1.85846      .   S
    O1276  Cu1323    1.85945      .   S
    O1255  Cu1333    1.85267  1_545   S
    O1258  Cu1335    1.84541  1_565   S
    O1309  Cu1323    1.85779      .   S
    O1291  Cu1335    1.84871      .   S
    O1119  C1121     1.27035      .   S
    O1080  C1082     1.27159      .   S
    O1098  C1100     1.27092      .   S
    O1134  C1136     1.27040      .   S
    O1083  C1085     1.27066      .   S
    O1137  C1139     1.27070      .   S
    O1116  C1118     1.27058      .   S
    O1101  C1103     1.27069      .   S
    O1287  C1289     1.26998      .   S
    O1248  C1250     1.27050      .   S
    O1302  C1304     1.27004      .   S
    O1269  C1271     1.27044      .   S
    O1266  C1268     1.27072      .   S
    O1305  C1307     1.26999      .   S
    O1251  C1253     1.27007      .   S
    O1284  C1286     1.27091      .   S
    Cu1153 O1120     1.84954  1_455   S
    Cu1153 O1081     1.85203      .   S
    Cu1165 O1099     1.85825      .   S
    Cu1165 O1138     1.85322      .   S
    Cu1155 O1084     1.84809  1_455   S
    Cu1155 O1117     1.84855      .   S
    Cu1321 O1288     1.84832      .   S
    Cu1321 O1249     1.85661      .   S
    Cu1167 O1135     1.85801      .   S
    Cu1167 O1102     1.85773      .   S
    Cu1333 O1267     1.85377      .   S
    Cu1333 O1306     1.85582  1_565   S
    Cu1335 O1303     1.84834  1_545   S
    Cu1335 O1270     1.84581      .   S
    Cu1323 O1252     1.86015      .   S
    Cu1323 O1285     1.85874      .   S
    C1121  O1120     1.27012      .   S
    C1082  O1081     1.26978      .   S
    C1100  O1099     1.27077      .   S
    C1136  O1135     1.27132      .   S
    C1085  O1084     1.26953      .   S
    C1139  O1138     1.27073      .   S
    C1118  O1117     1.26983      .   S
    C1289  O1288     1.26988      .   S
    C1103  O1102     1.27050      .   S
    C1250  O1249     1.27037      .   S
    C1304  O1303     1.27055      .   S
    C1268  O1267     1.27024      .   S
    C1271  O1270     1.26942      .   S
    C1307  O1306     1.27038      .   S
    C1286  O1285     1.27027      .   S
    C1253  O1252     1.27085      .   S
    H535   C532      1.08014      .   S
    H613   C610      1.07896      .   S
    H517   C515      1.07945      .   S
    H543   C541      1.08177      .   S
    H223   C220      1.07967      .   S
    H301   C298      1.07973      .   S
    H327   C324      1.08036      .   S
    H431   C428      1.08001      .   S
    H231   C229      1.07949      .   S
    H509   C506      1.07999      .   S
    H309   C307      1.07948      .   S
    H621   C619      1.07961      .   S
    H439   C437      1.07992      .   S
    H335   C333      1.08040      .   S
    H405   C402      1.08078      .   S
    C532   C533      1.38594      .   S
    C532   N531      1.34399      .   S
    H413   C411      1.08075      .   S
    C610   C611      1.38912      .   S
    C610   N609      1.34380      .   S
    C515   C514      1.38310      .   S
    C515   N511      1.34406      .   S
    C220   C221      1.38220      .   S
    C220   N219      1.34082      .   S
    C298   C299      1.38340      .   S
    C298   N297      1.34198      .   S
    C324   C325      1.38782      .   S
    C324   N323      1.34499      .   S
    C533   C534      1.38802      .   S
    C541   C540      1.38068      .   S
    C541   N537      1.34562      .   S
    C229   C228      1.38361      .   S
    C229   N225      1.34436      .   S
    C428   C429      1.39297      .   S
    C428   N427      1.34815      .   S
    C307   C306      1.38080      .   S
    C307   N303      1.34222      .   S
    C506   C507      1.38195      .   S
    C506   N505      1.34059      .   S
    C619   C618      1.38661      .   S
    C619   N615      1.34559      .   S
    C611   C612      1.39234      .   S
    C437   C436      1.38805      .   S
    C437   N433      1.34933      .   S
    C514   C513      1.38705      .   S
    C402   C403      1.38578      .   S
    C402   N401      1.34283      .   S
    C325   C326      1.38734      .   S
    C333   C332      1.38662      .   S
    C333   N329      1.34658      .   S
    C411   C410      1.38540      .   S
    C411   N407      1.34492      .   S
    C221   C222      1.39166      .   S
    C299   C300      1.38883      .   S
    C410   C409      1.38707      .   S
    C403   C404      1.39086      .   S
    C228   C227      1.38752      .   S
    C429   C430      1.38785      .   S
    C306   C305      1.38981      .   S
    C507   C508      1.39043      .   S
    N531   Cu529     1.94094      .   S
    N531   N530      1.31263      .   S
    C540   C539      1.38317      .   S
    Cu529  N537      1.96416      .   S
    C332   C331      1.38534      .   S
    C618   C617      1.38589      .   S
    C436   C435      1.38410      .   S
    Cu503  N511      1.95774      .   S
    Cu503  N505      1.93353      .   S
    N511   N512      1.31769      .   S
    N609   Cu607     1.94254      .   S
    N609   N608      1.31319      .   S
    Cu295  N297      1.93424      .   S
    Cu295  N303      1.95648      .   S
    Cu607  N615      1.96803      .   S
    Cu607  H623      2.06741      .   S
    Cu607  H622      2.06595      .   S
    Cu217  N219      1.93581      .   S
    Cu217  N225      1.96085      .   S
    N297   N296      1.31199      .   S
    N219   N218      1.31416      .   S
    N537   N538      1.32017      .   S
    Cu425  N427      1.95610      .   S
    Cu425  N433      1.97884      .   S
    Cu425  H441      2.05784      .   S
    Cu425  H440      2.06211      .   S
    N505   N504      1.31348      .   S
    N225   N226      1.31760      .   S
    N303   N304      1.31863      .   S
    N427   N426      1.31330      .   S
    N323   Cu321     1.94273      .   S
    N323   N322      1.31232      .   S
    N615   N616      1.31831      .   S
    N433   N434      1.31977      .   S
    N407   Cu399     1.96390      .   S
    N407   N408      1.31865      .   S
    Cu321  N329      1.96786      .   S
    Cu321  H337      2.05287      .   S
    N401   Cu399     1.94241      .   S
    N401   N400      1.31432      .   S
    N329   N330      1.31856      .   S
    C409   H412      1.08086      .   S
    C409   N408      1.34638      .   S
    C534   N530      1.34725      .   S
    C534   H536      1.08025      .   S
    Cu399  H415      2.02166      .   S
    C513   N512      1.34640      .   S
    C513   H516      1.07992      .   S
    C612   N608      1.34764      .   S
    C612   H614      1.08047      .   S
    C404   N400      1.34886      .   S
    C404   H406      1.08091      .   S
    C326   N322      1.34642      .   S
    C326   H328      1.08044      .   S
    C300   N296      1.34915      .   S
    C300   H302      1.08102      .   S
    C222   N218      1.35157      .   S
    C222   H224      1.08106      .   S
    N530   Cu527     1.94781      .   S
    C227   N226      1.34805      .   S
    C227   H230      1.08016      .   S
    N408   Cu398     1.96706      .   S
    C430   N426      1.34278      .   S
    C430   H432      1.07780      .   S
    C305   N304      1.35004      .   S
    C305   H308      1.08078      .   S
    N512   Cu502     1.96710      .   S
    C508   N504      1.35073      .   S
    C508   H510      1.08128      .   S
    H519   Cu502     2.05916      .   S
    N608   Cu605     1.95063      .   S
    C331   N330      1.34542      .   S
    C331   H334      1.08019      .   S
    H233   Cu216     2.05929      .   S
    N296   Cu293     1.94905      .   S
    H311   Cu294     2.04854      .   S
    N218   Cu215     1.96157      .   S
    H545   Cu528     2.06329      .   S
    N322   Cu319     1.94458      .   S
    N226   Cu216     1.97101      .   S
    N400   Cu397     1.95380      .   S
    C617   N616      1.34622      .   S
    C617   H620      1.07967      .   S
    C435   N434      1.34429      .   S
    C435   H438      1.07953      .   S
    C539   N538      1.34818      .   S
    C539   H542      1.08237      .   S
    N304   Cu294     1.98041      .   S
    N504   Cu501     1.95591      .   S
    N426   Cu423     1.93832      .   S
    N538   Cu528     1.97137      .   S
    N330   Cu320     1.96594      .   S
    N616   Cu606     1.96678      .   S
    N434   Cu424     1.96701      .   S
    H544   Cu528     2.06693      .   S
    Cu398  H414      2.01099      .   S
    Cu398  N390      1.94672      .   S
    H518   Cu502     2.05802      .   S
    H232   Cu216     2.05550      .   S
    H310   Cu294     2.05041      .   S
    Cu502  N494      1.94125      .   S
    Cu527  N521      1.94630      .   S
    H336   Cu320     2.03990      .   S
    Cu293  N287      1.94612      .   S
    Cu397  N391      1.95285      .   S
    Cu605  N599      1.95106      .   S
    Cu215  N209      1.95931      .   S
    Cu216  N208      1.94414      .   S
    Cu501  N495      1.95452      .   S
    Cu294  N286      1.95519      .   S
    Cu423  N417      1.93798      .   S
    Cu320  N312      1.94182      .   S
    Cu319  N313      1.94400      .   S
    Cu528  N520      1.94684      .   S
    Cu606  N598      1.94214      .   S
    Cu424  N416      1.94523      .   S
    N390   N391      1.31404      .   S
    N390   C394      1.34356      .   S
    N391   C392      1.34784      .   S
    N494   N495      1.31453      .   S
    N494   C498      1.34240      .   S
    N495   C496      1.34963      .   S
    N208   N209      1.31460      .   S
    N208   C212      1.34342      .   S
    N287   N286      1.31441      .   S
    N287   C288      1.34512      .   S
    N209   C210      1.35071      .   S
    N521   N520      1.31338      .   S
    N521   C522      1.34700      .   S
    N286   C290      1.34713      .   S
    N599   N598      1.31282      .   S
    N599   C600      1.34835      .   S
    N312   N313      1.31250      .   S
    N312   C316      1.34471      .   S
    N313   C314      1.34663      .   S
    N520   C524      1.34521      .   S
    N417   N416      1.31320      .   S
    N417   C418      1.34449      .   S
    N598   C602      1.34292      .   S
    N416   C420      1.34688      .   S
    C394   H396      1.08080      .   S
    C394   C393      1.38595      .   S
    C498   H500      1.07954      .   S
    C498   C497      1.38493      .   S
    C212   H214      1.07986      .   S
    C212   C211      1.38492      .   S
    C522   H525      1.07999      .   S
    C522   C523      1.38752      .   S
    C210   H213      1.08050      .   S
    C210   C211      1.39149      .   S
    C496   H499      1.08101      .   S
    C496   C497      1.39026      .   S
    C288   H291      1.07996      .   S
    C288   C289      1.38657      .   S
    C392   H395      1.08063      .   S
    C392   C393      1.38983      .   S
    C600   H603      1.08021      .   S
    C600   C601      1.39249      .   S
    C316   H318      1.07997      .   S
    C316   C315      1.38612      .   S
    C290   H292      1.08021      .   S
    C290   C289      1.38854      .   S
    C314   H317      1.07965      .   S
    C314   C315      1.38777      .   S
    C418   H421      1.07826      .   S
    C418   C419      1.38539      .   S
    C524   H526      1.07989      .   S
    C524   C523      1.38787      .   S
    C602   H604      1.07867      .   S
    C602   C601      1.38935      .   S
    C420   H422      1.07990      .   S
    C420   C419      1.38675      .   S
    C679   C678      1.38938      .   S
    C679   C680      1.38446      .   S
    C159   C160      1.39017      .   S
    C159   C158      1.38289      .   S
    C60    C61       1.39359      .   S
    C60    C59       1.38831      .   S
    C783   C782      1.38794      .   S
    C783   C784      1.38681      .   S
    C757   C756      1.38421      .   S
    C757   C758      1.38915      .   S
    C653   C654      1.39072      .   S
    C653   C652      1.38523      .   S
    C21    C20       1.38461      .   S
    C21    C22       1.38995      .   S
    C133   C132      1.39587      .   S
    C133   C134      1.38532      .   S
    H681   C678      1.08008      .   S
    H759   C756      1.08055      .   S
    H162   C160      1.08131      .   S
    H135   C132      1.08101      .   S
    H161   C158      1.08073      .   S
    H63    C61       1.07987      .   S
    H785   C782      1.07998      .   S
    C678   N677      1.34945      .   S
    H682   C680      1.07985      .   S
    H62    C59       1.07789      .   S
    H23    C20       1.07943      .   S
    H656   C654      1.08059      .   S
    H786   C784      1.08042      .   S
    H655   C652      1.07937      .   S
    C160   N156      1.34889      .   S
    H47    C22       1.08026      .   S
    C756   N755      1.34335      .   S
    C158   N157      1.34319      .   S
    C680   N676      1.34271      .   S
    C61    N57       1.34865      .   S
    H760   C758      1.08105      .   S
    C59    N58       1.34364      .   S
    C132   N131      1.35103      .   S
    C782   N781      1.34644      .   S
    C784   N780      1.34536      .   S
    C20    N19       1.34367      .   S
    C654   N650      1.34877      .   S
    C652   N651      1.34396      .   S
    H136   C134      1.07915      .   S
    C758   N754      1.34744      .   S
    C22    N18       1.34734      .   S
    C134   N130      1.33965      .   S
    N677   N676      1.31219      .   S
    N677   Cu683     1.94956      .   S
    N755   N754      1.31404      .   S
    N755   Cu761     1.93062      .   S
    N156   N157      1.31325      .   S
    N156   Cu164     1.95955      .   S
    N676   Cu684     1.93781      .   S
    N157   Cu163     1.93566      .   S
    N57    N58       1.31274      .   S
    N57    Cu65      1.95592      .   S
    N58    Cu64      1.94014      .   S
    N754   Cu762     1.95589      .   S
    N131   N130      1.31180      .   S
    N131   Cu137     1.95880      .   S
    N19    N18       1.31355      .   S
    N19    Cu26      1.93262      .   S
    N781   N780      1.31364      .   S
    N781   Cu787     1.94663      .   S
    N18    Cu27      1.96152      .   S
    N780   Cu788     1.94963      .   S
    N650   N651      1.31380      .   S
    N650   Cu658     1.95913      .   S
    N651   Cu657     1.93998      .   S
    N130   Cu138     1.93075      .   S
    Cu761  N764      1.93199      .   S
    Cu683  N686      1.94758      .   S
    Cu137  N140      1.95676      .   S
    Cu164  H180      2.05916      .   S
    Cu164  N174      1.98239      .   S
    Cu164  H181      2.05897      .   S
    Cu65   H79       2.05909      .   S
    Cu65   N73       1.97952      .   S
    Cu65   H80       2.06284      .   S
    Cu163  N166      1.93771      .   S
    Cu64   N67       1.94078      .   S
    Cu26   N0        1.93417      .   S
    Cu684  N694      1.95967      .   S
    Cu762  H778      2.06441      .   S
    Cu762  H779      2.05757      .   S
    Cu762  N772      1.97824      .   S
    Cu787  N790      1.94713      .   S
    Cu27   H14       2.05871      .   S
    Cu27   N8        1.98131      .   S
    Cu27   H56       2.06128      .   S
    Cu657  N660      1.94095      .   S
    Cu658  H674      2.06398      .   S
    Cu658  N668      1.98172      .   S
    Cu658  H675      2.06179      .   S
    Cu138  H154      2.04798      .   S
    Cu138  N148      1.95447      .   S
    Cu788  H805      2.06595      .   S
    Cu788  N798      1.97210      .   S
    H700   Cu685     2.05280      .   S
    H804   Cu789     2.06650      .   S
    H770   C768      1.08118      .   S
    H692   C690      1.07958      .   S
    H172   C170      1.08058      .   S
    H6     C4        1.08038      .   S
    H796   C794      1.07958      .   S
    H71    C69       1.07924      .   S
    H666   C664      1.07974      .   S
    H77    C74       1.07964      .   S
    H178   C175      1.08075      .   S
    H146   C144      1.08071      .   S
    H12    C9        1.08009      .   S
    H776   C773      1.07994      .   S
    N686   C690      1.34594      .   S
    N686   N687      1.31411      .   S
    H672   C669      1.07994      .   S
    H698   C695      1.08046      .   S
    N764   C768      1.34396      .   S
    N764   N765      1.31257      .   S
    H802   C799      1.07915      .   S
    N166   C170      1.34472      .   S
    N166   N167      1.31218      .   S
    H152   C149      1.07932      .   S
    C690   C689      1.38697      .   S
    N0     C4        1.34391      .   S
    N0     N1        1.31314      .   S
    N140   C144      1.34939      .   S
    N140   N141      1.31432      .   S
    N67    C69       1.34514      .   S
    N67    N68       1.31222      .   S
    N73    C74       1.34933      .   S
    N73    N72       1.31896      .   S
    C768   C767      1.38645      .   S
    N790   C794      1.34718      .   S
    N790   N791      1.31307      .   S
    N174   C175      1.34935      .   S
    N174   N173      1.32024      .   S
    H701   Cu685     2.05397      .   S
    N660   C664      1.34584      .   S
    N660   N661      1.31290      .   S
    C170   C169      1.38531      .   S
    N694   C695      1.34359      .   S
    N694   N693      1.31923      .   S
    N148   C149      1.34341      .   S
    N148   N147      1.31676      .   S
    H155   Cu139     2.04320      .   S
    N8     C9        1.34786      .   S
    N8     N7        1.32025      .   S
    C4     C3        1.38565      .   S
    N772   C773      1.34727      .   S
    N772   N771      1.31913      .   S
    C794   C793      1.39084      .   S
    N668   C669      1.34874      .   S
    N668   N667      1.32082      .   S
    C69    C25       1.38552      .   S
    N798   C799      1.34676      .   S
    N798   N797      1.31931      .   S
    C74    C75       1.38885      .   S
    C664   C663      1.38507      .   S
    C144   C143      1.39103      .   S
    C175   C176      1.38863      .   S
    C9     C10       1.38796      .   S
    C695   C696      1.37980      .   S
    C773   C774      1.38883      .   S
    C669   C670      1.38816      .   S
    C149   C150      1.38229      .   S
    C799   C800      1.38671      .   S
    Cu139  N141      1.94055      .   S
    Cu139  N147      1.96860      .   S
    N687   Cu685     1.95347      .   S
    N687   C688      1.34669      .   S
    N141   C142      1.34287      .   S
    N147   C151      1.34836      .   S
    N167   Cu165     1.94627      .   S
    N167   C168      1.34597      .   S
    N68    Cu66      1.94557      .   S
    N68    C24       1.34630      .   S
    N72    Cu66      1.96754      .   S
    N72    C76       1.34462      .   S
    N765   Cu763     1.94665      .   S
    N765   C766      1.34490      .   S
    N1     Cu28      1.95271      .   S
    N1     C2        1.34572      .   S
    N173   Cu165     1.96727      .   S
    N173   C177      1.34448      .   S
    N791   Cu789     1.94989      .   S
    N791   C792      1.34530      .   S
    Cu685  N693      1.97827      .   S
    N693   C697      1.34978      .   S
    N661   Cu659     1.95290      .   S
    N661   C662      1.34712      .   S
    N7     Cu28      1.97228      .   S
    N7     C11       1.34487      .   S
    N771   Cu763     1.96680      .   S
    N771   C775      1.34448      .   S
    N667   Cu659     1.97421      .   S
    N667   C671      1.34593      .   S
    C689   C688      1.38855      .   S
    N797   Cu789     1.97354      .   S
    N797   C801      1.34722      .   S
    C169   C168      1.38812      .   S
    C767   C766      1.38749      .   S
    C3     C2        1.38759      .   S
    C793   C792      1.39093      .   S
    C25    C24       1.38729      .   S
    C663   C662      1.38948      .   S
    C75    C76       1.38471      .   S
    C143   C142      1.38596      .   S
    C176   C177      1.38388      .   S
    C150   C151      1.38801      .   S
    C10    C11       1.38499      .   S
    C696   C697      1.38690      .   S
    C670   C671      1.38612      .   S
    C774   C775      1.38521      .   S
    C688   H691      1.08039      .   S
    C800   C801      1.38721      .   S
    C142   H145      1.07995      .   S
    C168   H171      1.08061      .   S
    C151   H153      1.08119      .   S
    C24    H70       1.08063      .   S
    C76    H78       1.07987      .   S
    C2     H5        1.08044      .   S
    C792   H795      1.07976      .   S
    C766   H769      1.08090      .   S
    C177   H179      1.07978      .   S
    C662   H665      1.08024      .   S
    C11    H13       1.07958      .   S
    C697   H699      1.08086      .   S
    C671   H673      1.07987      .   S
    C775   H777      1.07877      .   S
    C801   H803      1.07990      .   S
    O916   C917      1.27059      .   S
    O916   Cu987     1.85323      .   S
    O949   C950      1.27025      .   S
    O949   Cu987     1.85540  1_565   S
    O970   C971      1.27126      .   S
    O970   Cu997     1.85645  1_655   S
    O931   C932      1.27156      .   S
    O931   Cu997     1.85720      .   S
    O1340  C1341     1.27028      .   S
    O1340  Cu1411    1.85248      .   S
    O1373  C1374     1.27165      .   S
    O1373  Cu1411    1.85774      .   S
    O952   C953      1.27140      .   S
    O952   Cu985     1.86071  1_545   S
    O934   C935      1.27013      .   S
    O934   Cu999     1.85135      .   S
    O913   C914      1.27038      .   S
    O913   Cu985     1.85249      .   S
    O967   C968      1.27074      .   S
    O967   Cu999     1.85411  1_455   S
    O1391  C1392     1.26988      .   S
    O1391  Cu1415    1.85370      .   S
    O1376  C1377     1.27114      .   S
    O1376  Cu1409    1.86302      .   S
    O1337  C1338     1.27076      .   S
    O1337  Cu1409    1.85581      .   S
    O1358  C1359     1.27132      .   S
    O1358  Cu1415    1.85470      .   S
    O1355  C1356     1.26981      .   S
    O1355  Cu1413    1.85108      .   S
    O1394  C1395     1.27178      .   S
    O1394  Cu1413    1.85571      .   S
    C917   O915      1.27043      .   S
    C950   O948      1.27157      .   S
    C971   O969      1.27069      .   S
    C932   O930      1.26961      .   S
    C1341  O1339     1.27073      .   S
    C1374  O1372     1.26891      .   S
    C953   O951      1.27004      .   S
    C935   O933      1.27015      .   S
    C914   O912      1.27185      .   S
    C1392  O1390     1.27031      .   S
    C968   O966      1.27017      .   S
    C1377  O1375     1.27089      .   S
    C1338  O1336     1.26980      .   S
    C1356  O1354     1.27170      .   S
    C1359  O1357     1.27055      .   S
    C1395  O1393     1.26955      .   S
    Cu987  O973      1.85450      .   S
    Cu987  O940      1.85114  1_545   S
    Cu997  O919      1.85748  1_455   S
    Cu997  O958      1.85638      .   S
    Cu1411 O1364     1.85171      .   S
    Cu1411 O1397     1.85738      .   S
    Cu999  O955      1.85462      .   S
    Cu999  O922      1.85193  1_655   S
    Cu985  O937      1.85138  1_565   S
    Cu985  O976      1.85917      .   S
    Cu1409 O1361     1.85500      .   S
    Cu1409 O1400     1.86233      .   S
    Cu1415 O1346     1.85635      .   S
    Cu1415 O1379     1.85485      .   S
    Cu1413 O1343     1.85264      .   S
    Cu1413 O1382     1.85575      .   S
    O915   Cu986     1.85329      .   S
    O948   Cu986     1.85474  1_565   S
    O969   Cu996     1.85427  1_655   S
    O930   Cu996     1.84906      .   S
    O1339  Cu1410    1.85466      .   S
    O1372  Cu1410    1.84593      .   S
    O951   Cu984     1.84959  1_545   S
    O912   Cu984     1.85812      .   S
    O933   Cu998     1.85166      .   S
    O1390  Cu1414    1.85164      .   S
    O966   Cu998     1.85311  1_455   S
    O1375  Cu1408    1.85474      .   S
    O1336  Cu1408    1.84775      .   S
    O1357  Cu1414    1.85416      .   S
    O1354  Cu1412    1.85499      .   S
    O973   C974      1.27091      .   S
    O1393  Cu1412    1.84649      .   S
    O940   C941      1.27087      .   S
    O919   C920      1.27151      .   S
    O958   C959      1.27102      .   S
    O1364  C1365     1.27029      .   S
    O1397  C1398     1.27080      .   S
    O955   C956      1.27014      .   S
    O937   C938      1.27043      .   S
    O922   C923      1.27086      .   S
    O1346  C1347     1.27139      .   S
    O976   C977      1.27202      .   S
    O1361  C1362     1.27086      .   S
    O1400  C1401     1.27263      .   S
    O1379  C1380     1.27086      .   S
    O1343  C1344     1.27039      .   S
    O1382  C1383     1.27122      .   S
    Cu986  O972      1.85523      .   S
    Cu986  O939      1.85379  1_545   S
    Cu996  O918      1.84894  1_455   S
    Cu996  O957      1.85405      .   S
    Cu1410 O1363     1.85391      .   S
    Cu1410 O1396     1.84615      .   S
    Cu984  O936      1.85859  1_565   S
    Cu984  O975      1.84958      .   S
    Cu998  O954      1.85304      .   S
    Cu998  O921      1.85104  1_655   S
    Cu1408 O1360     1.84897      .   S
    Cu1408 O1399     1.85423      .   S
    Cu1414 O1345     1.85399      .   S
    Cu1414 O1378     1.85227      .   S
    Cu1412 O1342     1.85629      .   S
    Cu1412 O1381     1.84735      .   S
    C974   O972      1.27072      .   S
    C941   O939      1.27045      .   S
    C920   O918      1.27010      .   S
    C959   O957      1.27125      .   S
    C1365  O1363     1.27018      .   S
    C1398  O1396     1.26938      .   S
    C956   O954      1.27109      .   S
    C938   O936      1.27132      .   S
    C923   O921      1.27009      .   S
    C1347  O1345     1.27058      .   S
    C1362  O1360     1.26957      .   S
    C977   O975      1.26954      .   S
    C1401  O1399     1.27025      .   S
    C1380  O1378     1.27001      .   S
    C1344  O1342     1.27137      .   S
    C1383  O1381     1.26901      .   S
    C929   O928      1.27025      .   S
    C929   O927      1.27147      .   S
    C983   O982      1.27060      .   S
    C983   O981      1.27109      .   S
    C962   O961      1.27083      .   S
    C962   O960      1.27064      .   S
    C947   O946      1.27042      .   S
    C947   O945      1.27102      .   S
    C944   O942      1.27063      .   S
    C944   O943      1.27052      .   S
    C965   O963      1.27086      .   S
    C965   O964      1.27103      .   S
    C1386  O1385     1.27060      .   S
    C1386  O1384     1.27015      .   S
    C1353  O1352     1.26953      .   S
    C1353  O1351     1.27060      .   S
    C1404  O1403     1.26978      .   S
    C1404  O1402     1.27090      .   S
    C1368  O1367     1.26989      .   S
    C1368  O1366     1.27057      .   S
    C980   O978      1.27067      .   S
    C980   O979      1.27056      .   S
    C926   O924      1.26988      .   S
    C926   O925      1.27181      .   S
    C1371  O1369     1.27035      .   S
    C1371  O1370     1.27066      .   S
    C1389  O1387     1.27004      .   S
    C1389  O1388     1.26930      .   S
    C1407  O1405     1.27079      .   S
    C1407  O1406     1.27039      .   S
    C1350  O1348     1.27093      .   S
    C1350  O1349     1.27166      .   S
    O928   Cu993     1.85533      .   S
    O982   Cu993     1.85720      .   S
    O927   Cu992     1.85707      .   S
    O981   Cu992     1.85364      .   S
    O961   Cu995     1.85423      .   S
    O960   Cu994     1.85385      .   S
    O946   Cu995     1.85189      .   S
    O945   Cu994     1.85484      .   S
    O942   Cu988     1.85521      .   S
    O943   Cu989     1.85401      .   S
    O963   Cu988     1.85425      .   S
    O964   Cu989     1.85731      .   S
    O1385  Cu1497    1.85428      .   S
    O1384  Cu1496    1.85259  1_556   S
    O1352  Cu1499    1.84768      .   S
    O1403  Cu1499    1.84764      .   S
    O1367  Cu1497    1.84888      .   S
    O1351  Cu1498    1.85233  1_556   S
    O1402  Cu1498    1.85600  1_556   S
    O1366  Cu1496    1.85460  1_556   S
    O978   Cu990     1.85201  1_556   S
    O979   Cu991     1.85531  1_556   S
    O924   Cu990     1.84985  1_556   S
    O925   Cu991     1.85801  1_556   S
    O1369  Cu1494    1.85430  1_556   S
    O1370  Cu1495    1.85075  1_556   S
    O1387  Cu1494    1.85396  1_556   S
    O1388  Cu1495    1.84385  1_556   S
    O1348  Cu1492    1.85716  1_556   S
    O1405  Cu1492    1.85335  1_556   S
    O1406  Cu1493    1.85608  1_556   S
    O1349  Cu1493    1.85719  1_556   S
    Cu993  O881      1.85580  1_556   S
    Cu993  O863      1.85566  1_556   S
    Cu992  O880      1.85426  1_556   S
    Cu992  O862      1.85738  1_556   S
    Cu995  O848      1.85109  1_556   S
    Cu995  O899      1.85286  1_556   S
    Cu994  O847      1.85432  1_556   S
    Cu994  O898      1.85407  1_556   S
    Cu988  O901      1.85560  1_556   S
    Cu988  O844      1.85498  1_556   S
    Cu989  O902      1.85708  1_556   S
    Cu989  O845      1.85517  1_556   S
    Cu1497 O1432     1.85015  1_556   S
    Cu1497 O1486     1.85195  1_556   S
    Cu1499 O1450     1.84721  1_556   S
    Cu1499 O1465     1.84830  1_556   S
    Cu1496 O1431     1.85531      .   S
    Cu1496 O1485     1.85207      .   S
    Cu1498 O1449     1.85230      .   S
    Cu1498 O1464     1.85742      .   S
    Cu990  O865      1.84858      .   S
    Cu990  O883      1.85240      .   S
    Cu991  O884      1.85409      .   S
    Cu991  O866      1.85997      .   S
    Cu1494 O1482     1.85292      .   S
    Cu1494 O1428     1.85469      .   S
    Cu1495 O1483     1.84383      .   S
    Cu1495 O1429     1.85153      .   S
    Cu1492 O1467     1.85419      .   S
    Cu1492 O1446     1.85692      .   S
    Cu1493 O1468     1.85559      .   S
    Cu1493 O1447     1.85912      .   S
    O881   C882      1.27138      .   S
    O863   C864      1.27075      .   S
    O880   C882      1.27019      .   S
    O862   C864      1.27113      .   S
    O848   C849      1.27048      .   S
    O847   C849      1.27015      .   S
    O899   C900      1.27046      .   S
    O898   C900      1.27124      .   S
    O901   C903      1.27002      .   S
    O902   C903      1.27118      .   S
    O844   C846      1.27105      .   S
    O845   C846      1.27093      .   S
    O1432  C1433     1.26992      .   S
    O1450  C1451     1.26978      .   S
    O1486  C1487     1.27066      .   S
    O1465  C1466     1.26995      .   S
    O1431  C1433     1.27142      .   S
    O1485  C1487     1.27042      .   S
    O1449  C1451     1.27021      .   S
    O1464  C1466     1.27148      .   S
    O865   C867      1.27033      .   S
    O883   C885      1.27062      .   S
    O884   C885      1.26985      .   S
    O866   C867      1.27047      .   S
    O1483  C1484     1.26919      .   S
    O1482  C1484     1.27082      .   S
    O1429  C1430     1.27001      .   S
    O1428  C1430     1.27047      .   S
    O1467  C1469     1.27041      .   S
    O1446  C1448     1.27188      .   S
    O1468  C1469     1.27117      .   S
    O1447  C1448     1.27094      .   S
    O859   C861      1.27069      .   S
    O859   Cu906     1.85488      .   S
    O877   C879      1.27070      .   S
    O877   Cu908     1.85242      .   S
    O892   C894      1.27060      .   S
    O892   Cu906     1.85415  1_565   S
    O838   C840      1.27099      .   S
    O838   Cu908     1.85516  1_455   S
    O895   C897      1.27062      .   S
    O895   Cu904     1.85684  1_545   S
    O841   C843      1.27039      .   S
    O841   Cu910     1.85133      .   S
    O856   C858      1.27064      .   S
    O856   Cu904     1.85450      .   S
    O874   C876      1.27121      .   S
    O874   Cu910     1.85408  1_455   S
    O1458  C1460     1.27109      .   S
    O1458  Cu1502    1.85422      .   S
    O1425  C1427     1.26953      .   S
    O1425  Cu1502    1.84717      .   S
    O1422  C1424     1.26968      .   S
    O1422  Cu1500    1.84717      .   S
    O1443  C1445     1.27085      .   S
    O1443  Cu1490    1.85241      .   S
    O1476  C1478     1.26995      .   S
    O1476  Cu1490    1.84700      .   S
    O1461  C1463     1.27217      .   S
    O1461  Cu1500    1.86042      .   S
    O1440  C1442     1.26993      .   S
    O1440  Cu1488    1.84716      .   S
    O1479  C1481     1.27171      .   S
    O1479  Cu1488    1.85482      .   S
    C861   O860      1.27199      .   S
    C894   O893      1.27116      .   S
    C879   O878      1.27131      .   S
    C840   O839      1.27185      .   S
    C897   O896      1.26983      .   S
    C843   O842      1.27106      .   S
    C858   O857      1.27037      .   S
    C1460  O1459     1.26913      .   S
    C876   O875      1.27030      .   S
    C1427  O1426     1.27091      .   S
    C1424  O1423     1.27083      .   S
    C1445  O1444     1.27097      .   S
    C1478  O1477     1.27126      .   S
    C1463  O1462     1.26972      .   S
    Cu908  O850      1.85541      .   S
    Cu908  O889      1.85284  1_655   S
    C1442  O1441     1.27156      .   S
    Cu906  O868      1.85513      .   S
    Cu906  O835      1.85489  1_545   S
    C1481  O1480     1.27036      .   S
    Cu904  O832      1.85450  1_565   S
    Cu904  O871      1.85664      .   S
    Cu910  O886      1.85415      .   S
    Cu910  O853      1.85167  1_655   S
    Cu1502 O1437     1.84801      .   S
    Cu1502 O1470     1.85565      .   S
    Cu1490 O1452     1.84807      .   S
    Cu1490 O1419     1.85484      .   S
    Cu1500 O1434     1.84757      .   S
    Cu1500 O1473     1.85928      .   S
    Cu1488 O1416     1.84848      .   S
    Cu1488 O1455     1.85471      .   S
    O860   Cu907     1.86222      .   S
    O893   Cu907     1.85966  1_565   S
    O878   Cu909     1.86103      .   S
    O839   Cu909     1.86128  1_455   S
    O896   Cu905     1.84870  1_545   S
    O842   Cu911     1.85719      .   S
    O857   Cu905     1.85249      .   S
    O1459  Cu1503    1.85182      .   S
    O1426  Cu1503    1.85698      .   S
    O875   Cu911     1.85172  1_455   S
    O1423  Cu1501    1.85942      .   S
    O1444  Cu1491    1.85451      .   S
    O1477  Cu1491    1.85990      .   S
    O1462  Cu1501    1.85392      .   S
    O850   C852      1.27090      .   S
    O889   C891      1.26979      .   S
    O868   C870      1.27091      .   S
    O832   C834      1.27014      .   S
    O1441  Cu1489    1.86014      .   S
    O886   C888      1.27029      .   S
    O835   C837      1.27128      .   S
    O871   C873      1.27120      .   S
    O1480  Cu1489    1.85705      .   S
    O1437  C1439     1.26891      .   S
    O853   C855      1.27054      .   S
    O1470  C1472     1.27065      .   S
    O1452  C1454     1.26956      .   S
    O1419  C1421     1.27063      .   S
    O1434  C1436     1.26920      .   S
    O1473  C1475     1.27172      .   S
    O1416  C1418     1.26998      .   S
    O1455  C1457     1.27004      .   S
    Cu907  O869      1.85865      .   S
    Cu907  O836      1.86209  1_545   S
    Cu909  O851      1.86116      .   S
    Cu909  O890      1.85958  1_655   S
    Cu905  O833      1.85261  1_565   S
    Cu905  O872      1.85012      .   S
    Cu911  O887      1.85111      .   S
    Cu911  O854      1.85745  1_655   S
    Cu1503 O1438     1.85455      .   S
    Cu1503 O1471     1.84969      .   S
    Cu1491 O1453     1.85947      .   S
    Cu1491 O1420     1.85386      .   S
    Cu1501 O1435     1.85845      .   S
    Cu1501 O1474     1.85311      .   S
    C870   O869      1.27129      .   S
    C852   O851      1.27138      .   S
    C891   O890      1.27172      .   S
    C834   O833      1.27051      .   S
    C837   O836      1.27077      .   S
    C888   O887      1.27053      .   S
    Cu1489 O1417     1.86175      .   S
    Cu1489 O1456     1.85948      .   S
    C1439  O1438     1.27212      .   S
    C873   O872      1.26938      .   S
    C855   O854      1.27059      .   S
    C1454  O1453     1.27148      .   S
    C1472  O1471     1.26985      .   S
    C1421  O1420     1.27072      .   S
    C1475  O1474     1.27087      .   S
    C1436  O1435     1.27168      .   S
    C1418  O1417     1.27131      .   S
    C1457  O1456     1.27117      .   S
    H361   C359      1.07973      .   S
    H249   C246      1.08005      .   S
    H283   C281      1.08003      .   S
    H569   C567      1.08032      .   S
    H465   C463      1.08048      .   S
    H275   C272      1.07925      .   S
    H379   C376      1.08148      .   S
    H491   C489      1.08065      .   S
    H353   C350      1.07983      .   S
    H587   C584      1.07928      .   S
    H257   C255      1.07962      .   S
    H595   C593      1.07997      .   S
    H561   C558      1.08107      .   S
    H483   C480      1.08018      .   S
    H387   C385      1.07999      .   S
    H457   C454      1.07974      .   S
    C359   C358      1.38483      .   S
    C359   N355      1.34470      .   S
    C463   C462      1.38654      .   S
    C463   N459      1.34648      .   S
    C272   C273      1.38735      .   S
    C272   N271      1.34526      .   S
    C281   C280      1.38884      .   S
    C281   N277      1.34913      .   S
    C567   C566      1.38969      .   S
    C567   N563      1.35092      .   S
    C246   C247      1.38971      .   S
    C246   N245      1.34924      .   S
    C350   C351      1.38325      .   S
    C350   N349      1.34139      .   S
    C489   C488      1.38917      .   S
    C489   N485      1.35020      .   S
    C584   C585      1.38820      .   S
    C584   N583      1.34259      .   S
    C376   C377      1.38978      .   S
    C376   N375      1.34763      .   S
    C593   C592      1.38702      .   S
    C593   N589      1.34744      .   S
    C255   C254      1.38849      .   S
    C255   N251      1.34854      .   S
    C385   C384      1.38812      .   S
    C385   N381      1.34718      .   S
    C558   C559      1.38961      .   S
    C558   N557      1.34779      .   S
    C480   C481      1.38828      .   S
    C480   N479      1.34664      .   S
    C454   C455      1.39037      .   S
    C454   N453      1.34481      .   S
    C358   C357      1.38606      .   S
    C462   C461      1.38648      .   S
    C273   C274      1.39044      .   S
    C566   C565      1.38270      .   S
    C351   C352      1.39066      .   S
    C280   C279      1.38454      .   S
    C247   C248      1.38325      .   S
    C488   C487      1.38132      .   S
    C585   C586      1.39421      .   S
    C384   C383      1.38577      .   S
    C592   C591      1.38453      .   S
    C377   C378      1.38579      .   S
    C254   C253      1.38484      .   S
    C481   C482      1.38824      .   S
    C559   C560      1.38568      .   S
    Cu347  N355      1.96312      .   S
    Cu347  N349      1.93942      .   S
    C455   C456      1.39141      .   S
    Cu269  N271      1.95085      .   S
    Cu269  N277      1.97626      .   S
    Cu269  H285      2.05576      .   S
    Cu269  H284      2.05565      .   S
    N355   N356      1.31761      .   S
    N271   N270      1.31448      .   S
    N349   N348      1.31385      .   S
    N459   Cu451     1.97204      .   S
    N459   N460      1.31884      .   S
    Cu243  N245      1.95556      .   S
    Cu243  N251      1.97956      .   S
    Cu243  H259      2.06537      .   S
    Cu243  H258      2.06158      .   S
    Cu451  N453      1.94905      .   S
    N277   N278      1.31792      .   S
    Cu555  N563      1.98267      .   S
    Cu555  N557      1.95731      .   S
    Cu555  H571      2.05391      .   S
    Cu555  H570      2.05043      .   S
    Cu581  N583      1.94420      .   S
    Cu581  N589      1.97002      .   S
    Cu581  H597      2.05912      .   S
    Cu581  H596      2.05828      .   S
    Cu477  N485      1.97860      .   S
    Cu477  N479      1.95247      .   S
    Cu477  H493      2.05206      .   S
    Cu477  H492      2.04643      .   S
    N563   N564      1.31885      .   S
    N245   N244      1.31357      .   S
    N485   N486      1.31860      .   S
    N583   N582      1.31369      .   S
    N589   N590      1.31726      .   S
    N251   N252      1.31968      .   S
    N557   N556      1.31435      .   S
    N381   Cu373     1.97590      .   S
    N381   N382      1.31970      .   S
    N453   N452      1.31321      .   S
    N479   N478      1.31452      .   S
    N375   Cu373     1.95344      .   S
    N375   N374      1.31324      .   S
    Cu373  H389      2.03965      .   S
    C357   N356      1.34739      .   S
    C357   H360      1.07992      .   S
    C461   N460      1.34638      .   S
    C461   H464      1.07992      .   S
    C274   N270      1.35028      .   S
    C274   H276      1.08049      .   S
    C352   N348      1.35107      .   S
    C352   H354      1.08058      .   S
    H363   Cu346     2.05994      .   S
    C383   N382      1.34465      .   S
    C383   H386      1.07921      .   S
    C565   N564      1.34316      .   S
    C565   H568      1.07896      .   S
    C279   N278      1.34528      .   S
    C279   H282      1.07909      .   S
    C586   N582      1.34962      .   S
    C586   H588      1.08031      .   S
    C487   N486      1.34225      .   S
    C487   H490      1.07900      .   S
    C248   N244      1.34323      .   S
    C248   H250      1.07881      .   S
    N356   Cu346     1.96904      .   S
    C591   N590      1.34411      .   S
    C591   H594      1.07933      .   S
    N460   Cu450     1.97209      .   S
    H467   Cu450     2.06601      .   S
    N348   Cu345     1.95777      .   S
    N270   Cu267     1.95843      .   S
    C253   N252      1.34531      .   S
    C253   H256      1.07974      .   S
    C378   N374      1.34400      .   S
    C378   H380      1.08138      .   S
    N278   Cu268     1.96309      .   S
    C456   N452      1.34730      .   S
    C456   H458      1.08001      .   S
    C482   N478      1.34751      .   S
    C482   H484      1.07941      .   S
    C560   N556      1.34494      .   S
    C560   H562      1.07931      .   S
    N564   Cu554     1.96140      .   S
    N582   Cu579     1.95704      .   S
    N486   Cu476     1.95624      .   S
    N244   Cu241     1.93759      .   S
    N382   Cu372     1.97144      .   S
    N590   Cu580     1.96072      .   S
    N252   Cu242     1.96947      .   S
    N452   Cu449     1.94691      .   S
    N556   Cu553     1.94515      .   S
    N478   Cu475     1.95095      .   S
    N374   Cu371     1.93516      .   S
    H362   Cu346     2.06073      .   S
    H466   Cu450     2.06472      .   S
    H388   Cu372     2.05108      .   S
    Cu345  N339      1.95663      .   S
    Cu346  N338      1.94362      .   S
    Cu267  N261      1.95978      .   S
    Cu450  N442      1.94951      .   S
    Cu268  N260      1.93939      .   S
    Cu579  N573      1.95898      .   S
    Cu580  N572      1.93655      .   S
    Cu449  N443      1.94694      .   S
    Cu476  N468      1.93287      .   S
    Cu241  N235      1.93809      .   S
    Cu554  N546      1.93976      .   S
    Cu372  N364      1.94862      .   S
    Cu553  N547      1.94768      .   S
    Cu242  N234      1.94726      .   S
    Cu475  N469      1.95430      .   S
    Cu371  N365      1.93235      .   S
    N338   N339      1.31402      .   S
    N338   C342      1.34317      .   S
    N339   C340      1.34950      .   S
    N442   N443      1.31323      .   S
    N442   C446      1.34488      .   S
    N572   N573      1.31272      .   S
    N572   C576      1.34089      .   S
    N261   N260      1.31378      .   S
    N261   C262      1.35180      .   S
    N443   C444      1.34636      .   S
    N573   C574      1.35085      .   S
    N260   C264      1.34208      .   S
    N468   N469      1.31141      .   S
    N468   C472      1.34162      .   S
    N546   N547      1.31158      .   S
    N546   C550      1.34270      .   S
    N235   N234      1.31239      .   S
    N235   C236      1.34373      .   S
    N469   C470      1.34953      .   S
    N364   N365      1.31288      .   S
    N364   C368      1.34579      .   S
    N547   C548      1.34762      .   S
    N234   C238      1.34733      .   S
    N365   C366      1.34400      .   S
    C342   H344      1.07966      .   S
    C342   C341      1.38486      .   S
    C340   H343      1.08070      .   S
    C340   C341      1.39095      .   S
    C446   H448      1.07975      .   S
    C446   C445      1.39062      .   S
    C576   H578      1.07924      .   S
    C576   C575      1.38665      .   S
    C574   H577      1.08025      .   S
    C574   C575      1.39545      .   S
    C444   H447      1.07972      .   S
    C444   C445      1.39128      .   S
    C262   H265      1.08056      .   S
    C262   C263      1.39175      .   S
    C472   H474      1.07917      .   S
    C472   C471      1.38641      .   S
    C264   H266      1.07991      .   S
    C264   C263      1.38277      .   S
    C368   H370      1.08094      .   S
    C368   C367      1.38829      .   S
    C550   H552      1.07888      .   S
    C550   C549      1.38851      .   S
    C236   H239      1.07904      .   S
    C236   C237      1.38465      .   S
    C470   H473      1.08027      .   S
    C470   C471      1.39484      .   S
    C548   H551      1.07946      .   S
    C548   C549      1.39211      .   S
    C238   H240      1.08020      .   S
    C238   C237      1.38843      .   S
    C366   H369      1.08135      .   S
    C366   C367      1.38686      .   S
    Cu904  Cu905     2.64781      .   S
    Cu906  Cu907     2.64380      .   S
    Cu908  Cu909     2.64397      .   S
    Cu910  Cu911     2.64744      .   S
    Cu984  Cu985     2.64521      .   S
    Cu986  Cu987     2.64721      .   S
    Cu988  Cu989     2.64570      .   S
    Cu990  Cu991     2.64745      .   S
    Cu992  Cu993     2.64507      .   S
    Cu994  Cu995     2.64751      .   S
    Cu996  Cu997     2.64574      .   S
    Cu998  Cu999     2.64844      .   S
    Cu1072 Cu1073    2.64502      .   S
    Cu1074 Cu1075    2.64875      .   S
    Cu1076 Cu1077    2.64612      .   S
    Cu1078 Cu1079    2.64737      .   S
    Cu1152 Cu1153    2.64691      .   S
    Cu1154 Cu1155    2.64960      .   S
    Cu1156 Cu1157    2.64511      .   S
    Cu1158 Cu1159    2.64694      .   S
    Cu1160 Cu1161    2.64668      .   S
    Cu1162 Cu1163    2.64739      .   S
    Cu1164 Cu1165    2.64699      .   S
    Cu1166 Cu1167    2.64723      .   S
    Cu1240 Cu1241    2.64832      .   S
    Cu1242 Cu1243    2.64646      .   S
    Cu1244 Cu1245    2.64632      .   S
    Cu1246 Cu1247    2.64739      .   S
    Cu1320 Cu1321    2.64930      .   S
    Cu1322 Cu1323    2.64633      .   S
    Cu1324 Cu1325    2.64694      .   S
    Cu1326 Cu1327    2.64919      .   S
    Cu1328 Cu1329    2.64841      .   S
    Cu1330 Cu1331    2.64735      .   S
    Cu1332 Cu1333    2.64809      .   S
    Cu1334 Cu1335    2.65120      .   S
    Cu1408 Cu1409    2.64608      .   S
    Cu1410 Cu1411    2.64833      .   S
    Cu1412 Cu1413    2.64843      .   S
    Cu1414 Cu1415    2.64662      .   S
    Cu1488 Cu1489    2.64500      .   S
    Cu1490 Cu1491    2.64683      .   S
    Cu1492 Cu1493    2.64544      .   S
    Cu1494 Cu1495    2.64922      .   S
    Cu1496 Cu1497    2.64859  1_554   S
    Cu1498 Cu1499    2.64976  1_554   S
    Cu1500 Cu1501    2.64591      .   S
    Cu1502 Cu1503    2.64871      .   S
    C3     Ts1504    0.49490      .   S
    C10    Ts1505    0.49557      .   S
    C21    Ts1506    0.49490      .   S
    C25    Ts1507    0.49549      .   S
    C34    Ts1508    0.47113      .   S
    C44    Ts1509    0.47143      .   S
    C52    Ts1510    0.49495      .   S
    C60    Ts1511    0.47121      .   S
    C75    Ts1512    0.49631      .   S
    C84    Ts1513    0.47168      .   S
    C94    Ts1514    0.49519      .   S
    C101   Ts1515    0.49648      .   S
    C107   Ts1516    0.49453      .   S
    C117   Ts1517    0.49584      .   S
    C124   Ts1518    0.49482      .   S
    C133   Ts1519    0.47115      .   S
    C143   Ts1520    0.49651      .   S
    C150   Ts1521    0.49465      .   S
    C159   Ts1522    0.49527      .   S
    C169   Ts1523    0.49504      .   S
    C176   Ts1524    0.49548      .   S
    C185   Ts1525    0.49430      .   S
    C195   Ts1526    0.49639      .   S
    C202   Ts1527    0.49621      .   S
    C211   Ts1528    0.49664      .   S
    C221   Ts1529    0.49602      .   S
    C228   Ts1530    0.49530      .   S
    C237   Ts1531    0.49527      .   S
    C247   Ts1532    0.49578      .   S
    C254   Ts1533    0.49641      .   S
    C263   Ts1534    0.49611      .   S
    C273   Ts1535    0.49714      .   S
    C280   Ts1536    0.49629      .   S
    C289   Ts1537    0.49614      .   S
    C299   Ts1538    0.49479      .   S
    C306   Ts1539    0.49498      .   S
    C315   Ts1540    0.49518      .   S
    C325   Ts1541    0.49582      .   S
    C332   Ts1542    0.49546      .   S
    C341   Ts1543    0.49640      .   S
    C351   Ts1544    0.49581      .   S
    C358   Ts1545    0.49526      .   S
    C367   Ts1546    0.49488      .   S
    C377   Ts1547    0.49504      .   S
    C384   Ts1548    0.49610      .   S
    C393   Ts1549    0.49561      .   S
    C403   Ts1550    0.49573      .   S
    C410   Ts1551    0.49515      .   S
    C419   Ts1552    0.49523      .   S
    C429   Ts1553    0.47100      .   S
    C436   Ts1554    0.49571      .   S
    C445   Ts1555    0.47117      .   S
    C455   Ts1556    0.47111      .   S
    C462   Ts1557    0.49571      .   S
    C471   Ts1558    0.47082      .   S
    C481   Ts1559    0.49676      .   S
    C488   Ts1560    0.49548      .   S
    C497   Ts1561    0.49590      .   S
    C507   Ts1562    0.49432      .   S
    C514   Ts1563    0.49477      .   S
    C523   Ts1564    0.49615      .   S
    C533   Ts1565    0.49566      .   S
    C540   Ts1566    0.49189      .   S
    C549   Ts1567    0.47085      .   S
    C559   Ts1568    0.49639      .   S
    C566   Ts1569    0.49613      .   S
    C575   Ts1570    0.47115      .   S
    C585   Ts1571    0.47169      .   S
    C592   Ts1572    0.49544      .   S
    C601   Ts1573    0.47104      .   S
    C611   Ts1574    0.47096      .   S
    C618   Ts1575    0.49553      .   S
    C627   Ts1576    0.49648      .   S
    C637   Ts1577    0.47123      .   S
    C644   Ts1578    0.49410      .   S
    C653   Ts1579    0.49642      .   S
    C663   Ts1580    0.49597      .   S
    C670   Ts1581    0.49677      .   S
    C679   Ts1582    0.49495      .   S
    C689   Ts1583    0.49662      .   S
    C696   Ts1584    0.49377      .   S
    C705   Ts1585    0.49664      .   S
    C715   Ts1586    0.49652      .   S
    C722   Ts1587    0.49634      .   S
    C731   Ts1588    0.47119      .   S
    C741   Ts1589    0.47096      .   S
    C748   Ts1590    0.49629      .   S
    C757   Ts1591    0.49437      .   S
    C767   Ts1592    0.49426      .   S
    C774   Ts1593    0.49581      .   S
    C783   Ts1594    0.49637      .   S
    C793   Ts1595    0.47115      .   S
    C800   Ts1596    0.49652      .   S
    C809   Ts1597    0.49597      .   S
    C819   Ts1598    0.47102      .   S
    C826   Ts1599    0.49609      .   S
    C834   Og1600    0.49428      .   S
    C837   Og1601    0.49552      .   S
    C840   Og1602    0.49530      .   S
    C843   Og1603    0.49414      .   S
    C846   Og1604    0.49427      .   S
    C849   Og1605    0.49384      .   S
    C852   Og1606    0.49535      .   S
    C855   Og1607    0.49420      .   S
    C858   Og1608    0.49364      .   S
    C861   Og1609    0.49527      .   S
    C864   Og1610    0.49483      .   S
    C867   Og1611    0.49441      .   S
    C870   Og1612    0.49481      .   S
    C873   Og1613    0.49391      .   S
    C876   Og1614    0.49371      .   S
    C879   Og1615    0.49480      .   S
    C882   Og1616    0.49470      .   S
    C885   Og1617    0.49386      .   S
    C888   Og1618    0.49404      .   S
    C891   Og1619    0.49440      .   S
    C894   Og1620    0.49490      .   S
    C897   Og1621    0.49378      .   S
    C900   Og1622    0.49394      .   S
    C903   Og1623    0.49472      .   S
    C914   Og1624    0.49427      .   S
    C917   Og1625    0.49381      .   S
    C920   Og1626    0.49376      .   S
    C923   Og1627    0.49341      .   S
    C926   Og1628    0.49402      .   S
    C929   Og1629    0.49482      .   S
    C932   Og1630    0.49387      .   S
    C935   Og1631    0.49344      .   S
    C938   Og1632    0.49455      .   S
    C941   Og1633    0.49362      .   S
    C944   Og1634    0.49427      .   S
    C947   Og1635    0.49367      .   S
    C950   Og1636    0.49439      .   S
    C953   Og1637    0.49441      .   S
    C956   Og1638    0.49391      .   S
    C959   Og1639    0.49440      .   S
    C962   Og1640    0.49416      .   S
    C965   Og1641    0.49461      .   S
    C968   Og1642    0.49415      .   S
    C971   Og1643    0.49450      .   S
    C974   Og1644    0.49427      .   S
    C977   Og1645    0.49422      .   S
    C980   Og1646    0.49408      .   S
    C983   Og1647    0.49436      .   S
    C1002  Og1648    0.49400      .   S
    C1005  Og1649    0.49294      .   S
    C1008  Og1650    0.49413      .   S
    C1011  Og1651    0.49341      .   S
    C1014  Og1652    0.49531      .   S
    C1017  Og1653    0.49399      .   S
    C1020  Og1654    0.49391      .   S
    C1023  Og1655    0.49354      .   S
    C1026  Og1656    0.49446      .   S
    C1029  Og1657    0.49345      .   S
    C1032  Og1658    0.49414      .   S
    C1035  Og1659    0.49481      .   S
    C1038  Og1660    0.49378      .   S
    C1041  Og1661    0.49475      .   S
    C1044  Og1662    0.49403      .   S
    C1047  Og1663    0.49512      .   S
    C1050  Og1664    0.49403      .   S
    C1053  Og1665    0.49346      .   S
    C1056  Og1666    0.49439      .   S
    C1059  Og1667    0.49485      .   S
    C1062  Og1668    0.49370      .   S
    C1065  Og1669    0.49480      .   S
    C1068  Og1670    0.49383      .   S
    C1071  Og1671    0.49430      .   S
    C1082  Og1672    0.49401      .   S
    C1085  Og1673    0.49306      .   S
    C1088  Og1674    0.49406      .   S
    C1091  Og1675    0.49405      .   S
    C1094  Og1676    0.49448      .   S
    C1097  Og1677    0.49373      .   S
    C1100  Og1678    0.49424      .   S
    C1103  Og1679    0.49407      .   S
    C1106  Og1680    0.49412      .   S
    C1109  Og1681    0.49302      .   S
    C1112  Og1682    0.49505      .   S
    C1115  Og1683    0.49396      .   S
    C1118  Og1684    0.49332      .   S
    C1121  Og1685    0.49370      .   S
    C1124  Og1686    0.49389      .   S
    C1127  Og1687    0.49366      .   S
    C1130  Og1688    0.49368      .   S
    C1133  Og1689    0.49401      .   S
    C1136  Og1690    0.49382      .   S
    C1139  Og1691    0.49375      .   S
    C1142  Og1692    0.49309      .   S
    C1145  Og1693    0.49386      .   S
    C1148  Og1694    0.49350      .   S
    C1151  Og1695    0.49429      .   S
    C1170  Og1696    0.49400      .   S
    C1173  Og1697    0.49348      .   S
    C1176  Og1698    0.49389      .   S
    C1179  Og1699    0.49417      .   S
    C1182  Og1700    0.49461      .   S
    C1185  Og1701    0.49392      .   S
    C1188  Og1702    0.49395      .   S
    C1191  Og1703    0.49384      .   S
    C1194  Og1704    0.49415      .   S
    C1197  Og1705    0.49343      .   S
    C1200  Og1706    0.49401      .   S
    C1203  Og1707    0.49375      .   S
    C1206  Og1708    0.49479      .   S
    C1209  Og1709    0.49330      .   S
    C1212  Og1710    0.49388      .   S
    C1215  Og1711    0.49436      .   S
    C1218  Og1712    0.49321      .   S
    C1221  Og1713    0.49287      .   S
    C1224  Og1714    0.49396      .   S
    C1227  Og1715    0.49426      .   S
    C1230  Og1716    0.49495      .   S
    C1233  Og1717    0.49342      .   S
    C1236  Og1718    0.49441      .   S
    C1239  Og1719    0.49381      .   S
    C1250  Og1720    0.49425      .   S
    C1253  Og1721    0.49415      .   S
    C1256  Og1722    0.49332      .   S
    C1259  Og1723    0.49236      .   S
    C1262  Og1724    0.49354      .   S
    C1265  Og1725    0.49368      .   S
    C1268  Og1726    0.49353      .   S
    C1271  Og1727    0.49256      .   S
    C1274  Og1728    0.49433      .   S
    C1277  Og1729    0.49404      .   S
    C1280  Og1730    0.49424      .   S
    C1283  Og1731    0.49380      .   S
    C1286  Og1732    0.49417      .   S
    C1289  Og1733    0.49275      .   S
    C1292  Og1734    0.49307      .   S
    C1295  Og1735    0.49354      .   S
    C1298  Og1736    0.49451      .   S
    C1301  Og1737    0.49392      .   S
    C1304  Og1738    0.49309      .   S
    C1307  Og1739    0.49369      .   S
    C1310  Og1740    0.49416      .   S
    C1313  Og1741    0.49292      .   S
    C1316  Og1742    0.49274      .   S
    C1319  Og1743    0.49301      .   S
    C1338  Og1744    0.49346      .   S
    C1341  Og1745    0.49404      .   S
    C1344  Og1746    0.49427      .   S
    C1347  Og1747    0.49426      .   S
    C1350  Og1748    0.49506      .   S
    C1353  Og1749    0.49299      .   S
    C1356  Og1750    0.49362      .   S
    C1359  Og1751    0.49416      .   S
    C1362  Og1752    0.49336      .   S
    C1365  Og1753    0.49380      .   S
    C1368  Og1754    0.49324      .   S
    C1371  Og1755    0.49379      .   S
    C1374  Og1756    0.49336      .   S
    C1377  Og1757    0.49560      .   S
    C1380  Og1758    0.49397      .   S
    C1383  Og1759    0.49348      .   S
    C1386  Og1760    0.49385      .   S
    C1389  Og1761    0.49290      .   S
    C1392  Og1762    0.49390      .   S
    C1395  Og1763    0.49304      .   S
    C1398  Og1764    0.49315      .   S
    C1401  Og1765    0.49511      .   S
    C1404  Og1766    0.49352      .   S
    C1407  Og1767    0.49432      .   S
    C1418  Og1768    0.49440      .   S
    C1421  Og1769    0.49426      .   S
    C1424  Og1770    0.49379      .   S
    C1427  Og1771    0.49357      .   S
    C1430  Og1772    0.49385      .   S
    C1433  Og1773    0.49382      .   S
    C1436  Og1774    0.49361      .   S
    C1439  Og1775    0.49338      .   S
    C1442  Og1776    0.49386      .   S
    C1445  Og1777    0.49405      .   S
    C1448  Og1778    0.49502      .   S
    C1451  Og1779    0.49290      .   S
    C1454  Og1780    0.49410      .   S
    C1457  Og1781    0.49490      .   S
    C1460  Og1782    0.49395      .   S
    C1463  Og1783    0.49512      .   S
    C1466  Og1784    0.49392      .   S
    C1469  Og1785    0.49406      .   S
    C1472  Og1786    0.49364      .   S
    C1475  Og1787    0.49473      .   S
    C1478  Og1788    0.49396      .   S
    C1481  Og1789    0.49454      .   S
    C1484  Og1790    0.49249      .   S
    C1487  Og1791    0.49338      .   S
