# CIF file generated by openbabel 2.4.90, see http://openbabel.sf.net
data_I
_chemical_name_common ''
_cell_length_a 11.6884
_cell_length_b 5.5643
_cell_length_c 22.8159
_cell_angle_alpha 90
_cell_angle_beta 100.691
_cell_angle_gamma 90
_space_group_name_H-M_alt 'P 1'
_space_group_name_Hall 'P 1'
loop_
    _symmetry_equiv_pos_as_xyz
    x,y,z
loop_
    _atom_site_label
    _atom_site_type_symbol
    _atom_site_fract_x
    _atom_site_fract_y
    _atom_site_fract_z
    _atom_site_occupancy
    O0      O    0.23970   0.91505   0.69092   1.000
    O1      O    0.23621   0.52343   0.67212   1.000
    O2      O    0.54211   0.91879   0.24461   1.000
    O3      O    0.51296   0.52383   0.25348   1.000
    C4      C    0.22619   0.73840   0.65525   1.000
    C5      C    0.49352   0.74100   0.26289   1.000
    Ca6     Ca   0.63742   0.25633   0.22182   1.000
    O7      O    0.26030   0.41505   0.80908   1.000
    O8      O    0.26379   0.02343   0.82788   1.000
    O9      O    0.95789   0.41879   0.25539   1.000
    O10     O    0.98704   0.02383   0.24652   1.000
    Ca11    Ca   0.86258   0.75633   0.27818   1.000
    C12     C    0.27381   0.23840   0.84475   1.000
    C13     C    0.00648   0.24100   0.23711   1.000
    Ca14    Ca   0.13742   0.24367   0.72182   1.000
    O15     O    0.76030   0.08495   0.30908   1.000
    O16     O    0.76379   0.47657   0.32788   1.000
    O17     O    0.45789   0.08121   0.75539   1.000
    O18     O    0.48704   0.47617   0.74652   1.000
    C19     C    0.77381   0.26160   0.34475   1.000
    C20     C    0.50648   0.25900   0.73711   1.000
    Ca21    Ca   0.36258   0.74367   0.77818   1.000
    O22     O    0.73970   0.58495   0.19092   1.000
    O23     O    0.73621   0.97657   0.17212   1.000
    O24     O    0.04211   0.58121   0.74461   1.000
    O25     O    0.01296   0.97617   0.75348   1.000
    C26     C    0.72619   0.76160   0.15525   1.000
    C27     C    0.99352   0.75900   0.76289   1.000
    Og28    Og   0.21803   0.75607   0.63337   1.000
    Og29    Og   0.46219   0.75793   0.27493   1.000
    Ts30    Ts   0.58997   0.27276   0.19111   1.000
    Ts31    Ts   0.91003   0.77276   0.30889   1.000
    Og32    Og   0.28197   0.25607   0.86663   1.000
    Og33    Og   0.03781   0.25793   0.22507   1.000
    Ts34    Ts   0.08997   0.22724   0.69111   1.000
    Og35    Og   0.78197   0.24393   0.36663   1.000
    Og36    Og   0.53781   0.24207   0.72507   1.000
    Ts37    Ts   0.41003   0.72724   0.80889   1.000
    Og38    Og   0.71803   0.74393   0.13337   1.000
    Og39    Og   0.96219   0.74207   0.77493   1.000
loop_
    _geom_bond_atom_site_label_1
    _geom_bond_atom_site_label_2
    _geom_bond_distance
    _geom_bond_site_symmetry_2
    _ccdc_geom_bond_type
    C26    O23       1.25536      .   S
    C26    O22       1.26718      .   S
    Ca6    O2        2.29213  1_545   S
    Ca6    O3        2.28985      .   S
    C13    O10       1.25541  1_455   S
    C13    O9        1.25022  1_455   S
    O2     C5        1.25022      .   S
    O10    Ca11      2.28985  1_545   S
    O3     C5        1.25541      .   S
    O9     Ca11      2.29213      .   S
    O15    C19       1.26718      .   S
    O16    C19       1.25536      .   S
    C4     O1        1.25536      .   S
    C4     O0        1.26718      .   S
    Ca14   O24       2.29213      .   S
    Ca14   O25       2.28985  1_545   S
    C20    O18       1.25541      .   S
    C20    O17       1.25022      .   S
    O24    C27       1.25022  1_455   S
    O18    Ca21      2.28985      .   S
    O25    C27       1.25541  1_455   S
    O17    Ca21      2.29213  1_545   S
    O7     C12       1.26718      .   S
    O8     C12       1.25536      .   S
    O0     Ca14      2.36273  1_565   S
    O0     Ca21      2.42385      .   S
    O1     Ca14      2.35121      .   S
    O1     Ca21      2.86585      .   S
    O7     Ca14      2.42385      .   S
    O7     Ca21      2.36273      .   S
    O8     Ca14      2.86585      .   S
    O8     Ca21      2.35121  1_545   S
    O15    Ca11      2.36273  1_545   S
    O15    Ca6       2.42385      .   S
    O16    Ca11      2.35121      .   S
    O16    Ca6       2.86585      .   S
    O22    Ca11      2.42385      .   S
    O22    Ca6       2.36273      .   S
    O23    Ca11      2.86585      .   S
    O23    Ca6       2.35121  1_565   S
    C4     Og28      0.50038      .   S
    C5     Og29      0.50581      .   S
    Ca6    Ts30      0.81404      .   S
    Ca11   Ts31      0.81404      .   S
    C12    Og32      0.50038      .   S
    C13    Og33      0.50581      .   S
    Ca14   Ts34      0.81404      .   S
    C19    Og35      0.50038      .   S
    C20    Og36      0.50581      .   S
    Ca21   Ts37      0.81404      .   S
    C26    Og38      0.50038      .   S
    C27    Og39      0.50581      .   S
