# CIF file generated by openbabel 2.4.90, see http://openbabel.sf.net
data_I
_chemical_name_common ''
_cell_length_a 18.5949
_cell_length_b 18.5949
_cell_length_c 18.595
_cell_angle_alpha 89.9998
_cell_angle_beta 120
_cell_angle_gamma 120
_space_group_name_H-M_alt 'P 1'
_space_group_name_Hall 'P 1'
loop_
    _symmetry_equiv_pos_as_xyz
    x,y,z
loop_
    _atom_site_label
    _atom_site_type_symbol
    _atom_site_fract_x
    _atom_site_fract_y
    _atom_site_fract_z
    _atom_site_occupancy
    Cu0     Cu   0.00000   0.00000   0.43480   1.000
    Cu1     Cu   0.99999   0.56519   0.00000   1.000
    Cu2     Cu   0.56520   0.56520   0.00000   1.000
    Cu3     Cu   0.56519   0.99999   0.56520   1.000
    Cu4     Cu   0.56520   0.00000   0.00000   1.000
    Cu5     Cu   0.56520   0.56520   0.56520   1.000
    Cu6     Cu   0.00000   0.00000   0.56520   1.000
    Cu7     Cu   0.00001   0.43481   0.00000   1.000
    Cu8     Cu   0.43480   0.43480   0.00000   1.000
    Cu9     Cu   0.43481   0.00001   0.43480   1.000
    Cu10    Cu   0.43480   0.00000   0.00000   1.000
    Cu11    Cu   0.43480   0.43480   0.43480   1.000
    C12     C    0.40696   0.56921   0.97617   1.000
    C13     C    0.59304   0.56921   0.16225   1.000
    C14     C    0.86158   0.83775   0.43079   1.000
    C15     C    0.86158   0.02383   0.43079   1.000
    C16     C    0.13842   0.56921   0.16225   1.000
    C17     C    0.13842   0.56921   0.97617   1.000
    C18     C    0.40696   0.83775   0.43079   1.000
    C19     C    0.59304   0.02383   0.43079   1.000
    C20     C    0.59304   0.02383   0.16225   1.000
    C21     C    0.40696   0.83775   0.97617   1.000
    C22     C    0.40696   0.56921   0.43079   1.000
    C23     C    0.59304   0.56921   0.43079   1.000
    C24     C    0.13842   0.16225   0.56921   1.000
    C25     C    0.13842   0.97617   0.56921   1.000
    C26     C    0.86158   0.43079   0.02383   1.000
    C27     C    0.86158   0.43079   0.83775   1.000
    C28     C    0.59304   0.43079   0.56921   1.000
    C29     C    0.40696   0.43079   0.56921   1.000
    C30     C    0.59304   0.16225   0.02383   1.000
    C31     C    0.40696   0.97617   0.83775   1.000
    C32     C    0.40696   0.97617   0.56921   1.000
    C33     C    0.59304   0.16225   0.56921   1.000
    C34     C    0.59304   0.43079   0.02383   1.000
    C35     C    0.40696   0.43079   0.83775   1.000
    O36     O    0.89491   0.87441   0.38627   1.000
    O37     O    0.89492   0.02051   0.50865   1.000
    O38     O    0.10507   0.61372   0.12559   1.000
    O39     O    0.10509   0.49136   0.97950   1.000
    O40     O    0.48814   0.61373   0.97950   1.000
    O41     O    0.51185   0.49135   0.12559   1.000
    O42     O    0.48813   0.87441   0.50864   1.000
    O43     O    0.51187   0.02051   0.38628   1.000
    O44     O    0.63423   0.02050   0.12558   1.000
    O45     O    0.36576   0.87441   0.97950   1.000
    O46     O    0.36578   0.49136   0.38627   1.000
    O47     O    0.63423   0.61373   0.50865   1.000
    O48     O    0.10507   0.12558   0.49135   1.000
    O49     O    0.10509   0.97950   0.61373   1.000
    O50     O    0.89493   0.38628   0.02051   1.000
    O51     O    0.89491   0.50864   0.87441   1.000
    O52     O    0.51186   0.38627   0.49135   1.000
    O53     O    0.48814   0.50864   0.61373   1.000
    O54     O    0.51186   0.12559   0.02050   1.000
    O55     O    0.48814   0.97949   0.87441   1.000
    O56     O    0.36577   0.97950   0.49135   1.000
    O57     O    0.63423   0.12558   0.61373   1.000
    O58     O    0.63424   0.50865   0.02050   1.000
    O59     O    0.36577   0.38627   0.87441   1.000
    O60     O    0.10509   0.12559   0.61373   1.000
    O61     O    0.10508   0.97949   0.49135   1.000
    O62     O    0.89493   0.38628   0.87441   1.000
    O63     O    0.89491   0.50864   0.02050   1.000
    O64     O    0.51186   0.38627   0.02050   1.000
    O65     O    0.48815   0.50865   0.87441   1.000
    O66     O    0.51187   0.12559   0.49136   1.000
    O67     O    0.48813   0.97949   0.61373   1.000
    O68     O    0.36577   0.97950   0.87442   1.000
    O69     O    0.63424   0.12559   0.02050   1.000
    O70     O    0.63422   0.50864   0.61373   1.000
    O71     O    0.36577   0.38627   0.49136   1.000
    O72     O    0.89492   0.87441   0.50865   1.000
    O73     O    0.89491   0.02050   0.38627   1.000
    O74     O    0.10507   0.61372   0.97949   1.000
    O75     O    0.10509   0.49136   0.12559   1.000
    O76     O    0.48813   0.61372   0.50865   1.000
    O77     O    0.51186   0.49136   0.38627   1.000
    O78     O    0.48814   0.87441   0.97950   1.000
    O79     O    0.51186   0.02051   0.12559   1.000
    O80     O    0.63423   0.02050   0.50865   1.000
    O81     O    0.36577   0.87442   0.38627   1.000
    O82     O    0.36577   0.49136   0.97950   1.000
    O83     O    0.63423   0.61373   0.12559   1.000
    Og84    Og   0.39027   0.58397   0.97424   1.000
    Og85    Og   0.60973   0.58397   0.19370   1.000
    Og86    Og   0.83206   0.80630   0.41603   1.000
    Og87    Og   0.83206   0.02576   0.41603   1.000
    Og88    Og   0.16793   0.58397   0.19370   1.000
    Og89    Og   0.16793   0.58397   0.97424   1.000
    Og90    Og   0.39027   0.80630   0.41603   1.000
    Og91    Og   0.60973   0.02576   0.41603   1.000
    Og92    Og   0.60973   0.02576   0.19370   1.000
    Og93    Og   0.39027   0.80630   0.97424   1.000
    Og94    Og   0.39027   0.58397   0.41603   1.000
    Og95    Og   0.60973   0.58397   0.41603   1.000
    Og96    Og   0.16794   0.19370   0.58397   1.000
    Og97    Og   0.16794   0.97424   0.58397   1.000
    Og98    Og   0.83207   0.41603   0.02576   1.000
    Og99    Og   0.83207   0.41603   0.80630   1.000
    Og100   Og   0.60973   0.41603   0.58397   1.000
    Og101   Og   0.39027   0.41603   0.58397   1.000
    Og102   Og   0.60973   0.19370   0.02576   1.000
    Og103   Og   0.39027   0.97424   0.80630   1.000
    Og104   Og   0.39027   0.97424   0.58397   1.000
    Og105   Og   0.60973   0.19370   0.58397   1.000
    Og106   Og   0.60973   0.41603   0.02576   1.000
    Og107   Og   0.39027   0.41603   0.80630   1.000
loop_
    _geom_bond_atom_site_label_1
    _geom_bond_atom_site_label_2
    _geom_bond_distance
    _geom_bond_site_symmetry_2
    _ccdc_geom_bond_type
    Cu8    O64       1.93902      .   S
    Cu8    O41       1.93902      .   S
    Cu8    O59       1.93903  1_554   S
    Cu8    O82       1.93902  1_554   S
    Cu1    O63       1.93885      .   S
    Cu1    O38       1.93899  1_655   S
    Cu1    O51       1.93899  1_554   S
    Cu1    O74       1.93898  1_654   S
    Cu2    O58       1.93901      .   S
    Cu2    O83       1.93903      .   S
    Cu2    O65       1.93902  1_554   S
    Cu2    O40       1.93902  1_554   S
    Cu7    O50       1.93898  1_455   S
    Cu7    O75       1.93899      .   S
    Cu7    O62       1.93899  1_454   S
    Cu7    O39       1.93885  1_554   S
    O64    C34       1.27464      .   S
    O63    C26       1.27464      .   S
    O69    C30       1.27482      .   S
    O69    Cu4       1.93900      .   S
    O58    C34       1.27481      .   S
    O54    C30       1.27464      .   S
    O54    Cu10      1.93901      .   S
    O50    C26       1.27474      .   S
    O44    C20       1.27481      .   S
    O44    Cu4       1.93886      .   S
    O83    C13       1.27465      .   S
    O75    C16       1.27465      .   S
    O38    C16       1.27468      .   S
    O41    C13       1.27480      .   S
    O79    C20       1.27475      .   S
    O79    Cu10      1.93899      .   S
    O77    C23       1.27464      .   S
    O77    Cu11      1.93901      .   S
    O46    C22       1.27470      .   S
    O46    Cu11      1.93889      .   S
    O36    C14       1.27465      .   S
    O36    Cu0       1.93901  1_665   S
    O81    C18       1.27480      .   S
    O81    Cu9       1.93898  1_565   S
    O73    C15       1.27465      .   S
    O73    Cu0       1.93902  1_655   S
    O43    C19       1.27458      .   S
    O43    Cu9       1.93886      .   S
    C15    O37       1.27475      .   S
    C14    O72       1.27475      .   S
    C22    O76       1.27468      .   S
    C19    O80       1.27481      .   S
    C23    O47       1.27481      .   S
    C18    O42       1.27458      .   S
    Cu0    O48       1.93882      .   S
    Cu0    O61       1.93898  1_545   S
    Cu11   O52       1.93899      .   S
    Cu11   O71       1.93902      .   S
    Cu9    O56       1.93899  1_545   S
    Cu9    O66       1.93886      .   S
    O48    C24       1.27474      .   S
    O61    C25       1.27475      .   S
    O52    C28       1.27475      .   S
    O56    C32       1.27481      .   S
    O66    C33       1.27458      .   S
    O71    C29       1.27465      .   S
    O42    Cu3       1.93886      .   S
    O72    Cu6       1.93898  1_665   S
    O80    Cu3       1.93899  1_545   S
    O37    Cu6       1.93898  1_655   S
    O76    Cu5       1.93896      .   S
    O47    Cu5       1.93885      .   S
    Cu3    O67       1.93902      .   S
    Cu3    O57       1.93898  1_565   S
    Cu6    O49       1.93902  1_545   S
    Cu6    O60       1.93901      .   S
    Cu5    O53       1.93901      .   S
    Cu5    O70       1.93889      .   S
    C28    O70       1.27470      .   S
    C29    O53       1.27464      .   S
    C32    O67       1.27459      .   S
    C25    O49       1.27465      .   S
    C24    O60       1.27465      .   S
    C33    O57       1.27480      .   S
    C31    O55       1.27475      .   S
    C31    O68       1.27481      .   S
    C35    O59       1.27465      .   S
    C35    O65       1.27480      .   S
    C27    O51       1.27465      .   S
    C27    O62       1.27468      .   S
    O55    Cu4       1.93899  1_566   S
    O68    Cu10      1.93886  1_566   S
    C17    O74       1.27474      .   S
    C17    O39       1.27464      .   S
    C21    O78       1.27464      .   S
    C21    O45       1.27482      .   S
    C12    O82       1.27464      .   S
    C12    O40       1.27464      .   S
    O78    Cu4       1.93901  1_566   S
    O45    Cu10      1.93900  1_566   S
    Cu0    Cu6       2.42479      .   S
    Cu1    Cu7       2.42459  1_655   S
    Cu2    Cu8       2.42476      .   S
    Cu3    Cu9       2.42478  1_565   S
    Cu4    Cu10      2.42477      .   S
    Cu5    Cu11      2.42477      .   S
    C12    Og84      0.49695      .   S
    C13    Og85      0.49695      .   S
    C14    Og86      0.49695      .   S
    C15    Og87      0.49695      .   S
    C16    Og88      0.49694      .   S
    C17    Og89      0.49689      .   S
    C18    Og90      0.49693      .   S
    C19    Og91      0.49690      .   S
    C20    Og92      0.49695      .   S
    C21    Og93      0.49695      .   S
    C22    Og94      0.49694      .   S
    C23    Og95      0.49690      .   S
    C24    Og96      0.49695      .   S
    C25    Og97      0.49695      .   S
    C26    Og98      0.49689      .   S
    C27    Og99      0.49690      .   S
    C28    Og100     0.49694      .   S
    C29    Og101     0.49690      .   S
    C30    Og102     0.49695      .   S
    C31    Og103     0.49695      .   S
    C32    Og104     0.49690      .   S
    C33    Og105     0.49693      .   S
    C34    Og106     0.49695      .   S
    C35    Og107     0.49690      .   S
