# CIF file generated by openbabel 2.4.90, see http://openbabel.sf.net
data_I
_chemical_name_common ''
_cell_length_a 18.5949
_cell_length_b 18.5949
_cell_length_c 18.595
_cell_angle_alpha 89.9998
_cell_angle_beta 120
_cell_angle_gamma 120
_space_group_name_H-M_alt 'P 1'
_space_group_name_Hall 'P 1'
loop_
    _symmetry_equiv_pos_as_xyz
    x,y,z
loop_
    _atom_site_label
    _atom_site_type_symbol
    _atom_site_fract_x
    _atom_site_fract_y
    _atom_site_fract_z
    _atom_site_occupancy
    C0      C    0.40696   0.56921   0.97617   1.000
    C1      C    0.59304   0.56921   0.16225   1.000
    C2      C    0.86158   0.83775   0.43079   1.000
    C3      C    0.86158   0.02383   0.43079   1.000
    C4      C    0.13842   0.56921   0.16225   1.000
    C5      C    0.13842   0.56921   0.97617   1.000
    C6      C    0.40696   0.83775   0.43079   1.000
    C7      C    0.59304   0.02383   0.43079   1.000
    C8      C    0.59304   0.02383   0.16225   1.000
    C9      C    0.40696   0.83775   0.97617   1.000
    C10     C    0.40696   0.56921   0.43079   1.000
    C11     C    0.59304   0.56921   0.43079   1.000
    C12     C    0.13842   0.16225   0.56921   1.000
    C13     C    0.13842   0.97617   0.56921   1.000
    C14     C    0.86158   0.43079   0.02383   1.000
    C15     C    0.86158   0.43079   0.83775   1.000
    C16     C    0.59304   0.43079   0.56921   1.000
    C17     C    0.40696   0.43079   0.56921   1.000
    C18     C    0.59304   0.16225   0.02383   1.000
    C19     C    0.40696   0.97617   0.83775   1.000
    C20     C    0.40696   0.97617   0.56921   1.000
    C21     C    0.59304   0.16225   0.56921   1.000
    C22     C    0.59304   0.43079   0.02383   1.000
    C23     C    0.40696   0.43079   0.83775   1.000
