# CIF file generated by openbabel 2.4.90, see http://openbabel.sf.net
data_I
_chemical_name_common ''
_cell_length_a 11.6884
_cell_length_b 5.5643
_cell_length_c 22.8159
_cell_angle_alpha 90
_cell_angle_beta 100.691
_cell_angle_gamma 90
_space_group_name_H-M_alt 'P 1'
_space_group_name_Hall 'P 1'
loop_
    _symmetry_equiv_pos_as_xyz
    x,y,z
loop_
    _atom_site_label
    _atom_site_type_symbol
    _atom_site_fract_x
    _atom_site_fract_y
    _atom_site_fract_z
    _atom_site_occupancy
    C0      C    0.22619   0.73840   0.65525   1.000
    C1      C    0.49352   0.74100   0.26289   1.000
    C2      C    0.27381   0.23840   0.84475   1.000
    C3      C    0.00648   0.24100   0.23711   1.000
    C4      C    0.77381   0.26160   0.34475   1.000
    C5      C    0.50648   0.25900   0.73711   1.000
    C6      C    0.72619   0.76160   0.15525   1.000
    C7      C    0.99352   0.75900   0.76289   1.000
