# CIF file generated by openbabel 2.4.90, see http://openbabel.sf.net
data_I
_chemical_name_common ''
_cell_length_a 71.5169
_cell_length_b 71.4927
_cell_length_c 71.6087
_cell_angle_alpha 89.8315
_cell_angle_beta 90.1248
_cell_angle_gamma 89.8689
_space_group_name_H-M_alt 'P 1'
_space_group_name_Hall 'P 1'
loop_
    _symmetry_equiv_pos_as_xyz
    x,y,z
loop_
    _atom_site_label
    _atom_site_type_symbol
    _atom_site_fract_x
    _atom_site_fract_y
    _atom_site_fract_z
    _atom_site_occupancy
    N0      N    0.12577   0.05371   0.05565   1.000
    N1      N    0.05670   0.12494   0.05490   1.000
    N2      N    0.87421   0.05763   0.05344   1.000
    N3      N    0.94283   0.12673   0.05407   1.000
    N4      N    0.37633   0.55948   0.05600   1.000
    N5      N    0.55843   0.62681   0.05656   1.000
    N6      N    0.94119   0.87369   0.05530   1.000
    N7      N    0.44584   0.62811   0.05694   1.000
    N8      N    0.44458   0.37586   0.05809   1.000
    N9      N    0.55506   0.37368   0.05829   1.000
    N10     N    0.62765   0.55634   0.05598   1.000
    N11     N    0.37386   0.44646   0.05822   1.000
    N12     N    0.87329   0.94414   0.05430   1.000
    N13     N    0.55807   0.44473   0.12730   1.000
    N14     N    0.94234   0.05714   0.12428   1.000
    N15     N    0.44436   0.44685   0.12815   1.000
    N16     N    0.44563   0.55846   0.12727   1.000
    N17     N    0.94163   0.94348   0.12466   1.000
    N18     N    0.05440   0.94217   0.12537   1.000
    N19     N    0.05519   0.05584   0.12428   1.000
    N20     N    0.55838   0.55641   0.12563   1.000
    N21     N    0.12460   0.94200   0.05628   1.000
    N22     N    0.05385   0.87130   0.05697   1.000
    N23     N    0.62633   0.44243   0.05677   1.000
    N24     N    0.55720   0.44262   0.87461   1.000
    N25     N    0.94543   0.05617   0.87113   1.000
    N26     N    0.05697   0.05442   0.87267   1.000
    N27     N    0.05593   0.94184   0.87348   1.000
    N28     N    0.44492   0.55588   0.87347   1.000
    N29     N    0.44406   0.44543   0.87429   1.000
    N30     N    0.94434   0.94249   0.87262   1.000
    N31     N    0.55821   0.55543   0.87326   1.000
    N32     N    0.94303   0.87255   0.94324   1.000
    N33     N    0.44335   0.37573   0.94585   1.000
    N34     N    0.05801   0.12499   0.94218   1.000
    N35     N    0.37561   0.55774   0.94543   1.000
    N36     N    0.62531   0.44231   0.94543   1.000
    N37     N    0.55748   0.62539   0.94320   1.000
    N38     N    0.12484   0.94196   0.94565   1.000
    N39     N    0.87467   0.05613   0.94088   1.000
    N40     N    0.94537   0.12686   0.94126   1.000
    N41     N    0.87453   0.94436   0.94093   1.000
    N42     N    0.44697   0.62729   0.94288   1.000
    N43     N    0.05477   0.87098   0.94459   1.000
    N44     N    0.37360   0.44563   0.94565   1.000
    N45     N    0.12670   0.05385   0.94328   1.000
    N46     N    0.55523   0.37386   0.94502   1.000
    N47     N    0.62614   0.55599   0.94383   1.000
    N48     N    0.94537   0.37325   0.55454   1.000
    N49     N    0.12866   0.44426   0.55542   1.000
    N50     N    0.37298   0.05498   0.55679   1.000
    N51     N    0.87425   0.44262   0.55661   1.000
    N52     N    0.12756   0.55561   0.55643   1.000
    N53     N    0.55298   0.12609   0.55676   1.000
    N54     N    0.94489   0.62595   0.55639   1.000
    N55     N    0.62515   0.94536   0.55764   1.000
    N56     N    0.44089   0.12460   0.55663   1.000
    N57     N    0.87364   0.55511   0.55615   1.000
    N58     N    0.44397   0.87381   0.55630   1.000
    N59     N    0.37390   0.94373   0.55512   1.000
    N60     N    0.62543   0.05672   0.55701   1.000
    N61     N    0.55676   0.87431   0.55681   1.000
    N62     N    0.05619   0.62597   0.55656   1.000
    N63     N    0.05882   0.37456   0.55551   1.000
    N64     N    0.44354   0.94240   0.62649   1.000
    N65     N    0.44367   0.94342   0.37389   1.000
    N66     N    0.37254   0.05564   0.44298   1.000
    N67     N    0.94479   0.44210   0.62491   1.000
    N68     N    0.94490   0.55458   0.62617   1.000
    N69     N    0.55598   0.94404   0.62653   1.000
    N70     N    0.44234   0.05484   0.62806   1.000
    N71     N    0.55513   0.05733   0.62716   1.000
    N72     N    0.05648   0.55460   0.62656   1.000
    N73     N    0.05688   0.44320   0.62581   1.000
    N74     N    0.94349   0.62760   0.44513   1.000
    N75     N    0.05589   0.55836   0.37499   1.000
    N76     N    0.94435   0.44368   0.37538   1.000
    N77     N    0.55748   0.87548   0.44443   1.000
    N78     N    0.55474   0.12548   0.44401   1.000
    N79     N    0.05610   0.62711   0.44541   1.000
    N80     N    0.44210   0.12481   0.44431   1.000
    N81     N    0.05870   0.37430   0.44347   1.000
    N82     N    0.55486   0.05664   0.37369   1.000
    N83     N    0.44454   0.87399   0.44310   1.000
    N84     N    0.94423   0.37435   0.44301   1.000
    N85     N    0.94492   0.55599   0.37494   1.000
    N86     N    0.05647   0.44508   0.37336   1.000
    N87     N    0.12673   0.55592   0.44481   1.000
    N88     N    0.55608   0.94576   0.37434   1.000
    N89     N    0.37387   0.94272   0.44307   1.000
    N90     N    0.62535   0.05824   0.44467   1.000
    N91     N    0.87283   0.44427   0.44385   1.000
    N92     N    0.44183   0.05651   0.37348   1.000
    N93     N    0.12713   0.44431   0.44185   1.000
    N94     N    0.87420   0.55722   0.44386   1.000
    N95     N    0.62654   0.94593   0.44558   1.000
    Zr96    Zr   0.99911   0.09165   0.08949   1.000
    O97     O    0.02121   0.07710   0.10366   1.000
    O98     O    0.97693   0.10598   0.07510   1.000
    O99     O    0.97669   0.07766   0.10366   1.000
    O100    O    0.02181   0.10525   0.07540   1.000
    Zr101   Zr   0.90766   0.00064   0.08943   1.000
    O102    O    0.92180   0.02291   0.10362   1.000
    O103    O    0.89402   0.02312   0.07481   1.000
    O104    O    0.89363   0.97837   0.07514   1.000
    O105    O    0.92144   0.97810   0.10383   1.000
    Zr106   Zr   0.08935   0.99843   0.09048   1.000
    O107    O    0.10363   0.97613   0.07659   1.000
    O108    O    0.07508   0.97628   0.10468   1.000
    O109    O    0.10411   0.02023   0.07632   1.000
    O110    O    0.07537   0.02107   0.10421   1.000
    Zr111   Zr   0.59310   0.49998   0.09103   1.000
    O112    O    0.60672   0.47731   0.07710   1.000
    O113    O    0.57886   0.47818   0.10573   1.000
    O114    O    0.57894   0.52228   0.10500   1.000
    O115    O    0.60725   0.52216   0.07678   1.000
    Zr116   Zr   0.50201   0.59267   0.09187   1.000
    O117    O    0.52423   0.57792   0.10561   1.000
    O118    O    0.52426   0.60662   0.07756   1.000
    O119    O    0.47975   0.57876   0.10625   1.000
    O120    O    0.47985   0.60713   0.07770   1.000
    Zr121   Zr   0.99779   0.90765   0.09064   1.000
    O122    O    0.01989   0.89287   0.07694   1.000
    O123    O    0.97565   0.92228   0.10442   1.000
    O124    O    0.02012   0.92167   0.10479   1.000
    O125    O    0.97545   0.89380   0.07631   1.000
    Zr126   Zr   0.50041   0.41055   0.09387   1.000
    O127    O    0.47829   0.42525   0.10785   1.000
    O128    O    0.47833   0.39653   0.07936   1.000
    O129    O    0.52205   0.39560   0.07956   1.000
    O130    O    0.52314   0.42447   0.10755   1.000
    Zr131   Zr   0.40972   0.50284   0.09220   1.000
    O132    O    0.39611   0.52517   0.07746   1.000
    O133    O    0.42421   0.52485   0.10643   1.000
    O134    O    0.42384   0.48074   0.10675   1.000
    O135    O    0.39513   0.48059   0.07840   1.000
    Zr136   Zr   0.66440   0.83712   0.16580   1.000
    O137    O    0.71035   0.86138   0.14096   1.000
    O138    O    0.64002   0.79087   0.14202   1.000
    O139    O    0.64166   0.86153   0.21250   1.000
    Zr140   Zr   0.66542   0.16311   0.16587   1.000
    O141    O    0.64204   0.13919   0.21221   1.000
    O142    O    0.64005   0.20977   0.14285   1.000
    O143    O    0.71118   0.13945   0.14050   1.000
    Zr144   Zr   0.33453   0.16602   0.16251   1.000
    O145    O    0.35943   0.14181   0.20874   1.000
    O146    O    0.28762   0.14141   0.13970   1.000
    O147    O    0.35778   0.21263   0.13871   1.000
    Zr148   Zr   0.33579   0.83632   0.16458   1.000
    O149    O    0.28897   0.85825   0.13948   1.000
    O150    O    0.35877   0.86154   0.21050   1.000
    O151    O    0.36142   0.79004   0.14263   1.000
    Zr152   Zr   0.83532   0.66433   0.16646   1.000
    O153    O    0.86021   0.70972   0.14159   1.000
    O154    O    0.79023   0.63945   0.14173   1.000
    O155    O    0.85860   0.63927   0.21254   1.000
    Zr156   Zr   0.83713   0.33679   0.16581   1.000
    O157    O    0.79104   0.36054   0.14109   1.000
    O158    O    0.86064   0.36113   0.21188   1.000
    O159    O    0.86138   0.29000   0.14225   1.000
    Zr160   Zr   0.16540   0.66269   0.16481   1.000
    O161    O    0.21171   0.63893   0.14101   1.000
    O162    O    0.14158   0.70939   0.14111   1.000
    O163    O    0.14047   0.63909   0.21069   1.000
    Zr164   Zr   0.16357   0.33452   0.16408   1.000
    O165    O    0.13897   0.28855   0.14024   1.000
    O166    O    0.14061   0.35859   0.21110   1.000
    O167    O    0.21040   0.35860   0.14025   1.000
    Zr168   Zr   0.33677   0.33507   0.33512   1.000
    O169    O    0.29065   0.35902   0.35945   1.000
    O170    O    0.36111   0.28891   0.35883   1.000
    O171    O    0.35948   0.35935   0.28850   1.000
    Zr172   Zr   0.83500   0.66270   0.83440   1.000
    O173    O    0.85941   0.70966   0.85724   1.000
    O174    O    0.78998   0.63830   0.85983   1.000
    O175    O    0.85837   0.63851   0.78785   1.000
    Zr176   Zr   0.16555   0.33577   0.83654   1.000
    O177    O    0.21183   0.35839   0.86179   1.000
    O178    O    0.14263   0.36069   0.78978   1.000
    O179    O    0.14010   0.28951   0.85881   1.000
    Zr180   Zr   0.66426   0.83478   0.83545   1.000
    O181    O    0.63918   0.78893   0.85858   1.000
    O182    O    0.71044   0.85872   0.85993   1.000
    O183    O    0.63948   0.85905   0.78980   1.000
    Zr184   Zr   0.16619   0.66410   0.83466   1.000
    O185    O    0.14215   0.63996   0.78825   1.000
    O186    O    0.21268   0.63967   0.85835   1.000
    O187    O    0.14234   0.71013   0.85936   1.000
    Zr188   Zr   0.33394   0.83577   0.83605   1.000
    O189    O    0.35849   0.86035   0.79022   1.000
    O190    O    0.28751   0.86012   0.85947   1.000
    O191    O    0.35821   0.78946   0.86024   1.000
    Zr192   Zr   0.83515   0.33732   0.83489   1.000
    O193    O    0.85956   0.36122   0.78889   1.000
    O194    O    0.78884   0.36156   0.85884   1.000
    O195    O    0.85856   0.29031   0.85854   1.000
    Zr196   Zr   0.33509   0.16658   0.83658   1.000
    O197    O    0.35915   0.14205   0.79032   1.000
    O198    O    0.35943   0.21326   0.85985   1.000
    O199    O    0.28884   0.14242   0.86072   1.000
    Zr200   Zr   0.66331   0.16597   0.83559   1.000
    O201    O    0.63884   0.14113   0.79018   1.000
    O202    O    0.71028   0.14233   0.85924   1.000
    O203    O    0.63851   0.21110   0.86015   1.000
    Zr204   Zr   0.49757   0.09096   0.59267   1.000
    O205    O    0.51941   0.10519   0.57802   1.000
    O206    O    0.52026   0.07735   0.60681   1.000
    O207    O    0.47576   0.07636   0.60709   1.000
    O208    O    0.47516   0.10465   0.57809   1.000
    Zr209   Zr   0.40829   0.99893   0.59195   1.000
    O210    O    0.39441   0.97713   0.57696   1.000
    O211    O    0.42256   0.97662   0.60605   1.000
    O212    O    0.39392   0.02107   0.57773   1.000
    O213    O    0.42213   0.02098   0.60663   1.000
    Zr214   Zr   0.00143   0.40834   0.58961   1.000
    O215    O    0.02331   0.42250   0.60430   1.000
    O216    O    0.02406   0.39463   0.57565   1.000
    O217    O    0.97935   0.39408   0.57529   1.000
    O218    O    0.97906   0.42209   0.60390   1.000
    Zr219   Zr   0.50015   0.90855   0.59150   1.000
    O220    O    0.47800   0.89440   0.57720   1.000
    O221    O    0.52217   0.92293   0.60578   1.000
    O222    O    0.47782   0.92236   0.60570   1.000
    O223    O    0.52248   0.89464   0.57736   1.000
    Zr224   Zr   0.00064   0.58993   0.59115   1.000
    O225    O    0.97863   0.57556   0.60534   1.000
    O226    O    0.97864   0.60452   0.57700   1.000
    O227    O    0.02258   0.60453   0.57709   1.000
    O228    O    0.02269   0.57554   0.60548   1.000
    Zr229   Zr   0.09266   0.49928   0.59133   1.000
    O230    O    0.10726   0.47751   0.57684   1.000
    O231    O    0.07819   0.47709   0.60531   1.000
    O232    O    0.10682   0.52154   0.57718   1.000
    O233    O    0.07805   0.52115   0.60564   1.000
    Zr234   Zr   0.58978   0.00116   0.59215   1.000
    O235    O    0.57563   0.02330   0.60636   1.000
    O236    O    0.60423   0.02313   0.57793   1.000
    O237    O    0.60411   0.97916   0.57808   1.000
    O238    O    0.57595   0.97866   0.60613   1.000
    Zr239   Zr   0.90931   0.49892   0.59100   1.000
    O240    O    0.92371   0.52092   0.60527   1.000
    O241    O    0.89483   0.52110   0.57683   1.000
    O242    O    0.92371   0.47651   0.60485   1.000
    O243    O    0.89508   0.47672   0.57697   1.000
    Zr244   Zr   0.16428   0.16381   0.66456   1.000
    O245    O    0.13929   0.14151   0.71088   1.000
    O246    O    0.21025   0.13818   0.64203   1.000
    O247    O    0.14184   0.21012   0.63907   1.000
    Zr248   Zr   0.90862   0.59155   0.50071   1.000
    O249    O    0.89445   0.57683   0.52266   1.000
    O250    O    0.92327   0.60551   0.52274   1.000
    O251    O    0.89463   0.57753   0.47829   1.000
    O252    O    0.92268   0.60622   0.47874   1.000
    Zr253   Zr   0.16382   0.83531   0.33585   1.000
    O254    O    0.13778   0.85750   0.28941   1.000
    O255    O    0.14171   0.78885   0.36095   1.000
    O256    O    0.21013   0.86064   0.35817   1.000
    Zr257   Zr   0.33704   0.33501   0.66595   1.000
    O258    O    0.29046   0.35934   0.64253   1.000
    O259    O    0.36075   0.28901   0.64136   1.000
    O260    O    0.36139   0.35843   0.71239   1.000
    Zr261   Zr   0.33460   0.66513   0.33671   1.000
    O262    O    0.28803   0.64208   0.36046   1.000
    O263    O    0.35950   0.71081   0.36070   1.000
    O264    O    0.35879   0.64118   0.29017   1.000
    Zr265   Zr   0.16169   0.16299   0.33464   1.000
    O266    O    0.20861   0.13874   0.35738   1.000
    O267    O    0.13806   0.20861   0.35946   1.000
    O268    O    0.13734   0.14034   0.28803   1.000
    Zr269   Zr   0.90939   0.09185   0.99693   1.000
    O270    O    0.92303   0.10608   0.01945   1.000
    O271    O    0.92396   0.10607   0.97493   1.000
    O272    O    0.89530   0.07740   0.97476   1.000
    O273    O    0.89513   0.07784   0.01920   1.000
    Zr274   Zr   0.16566   0.83457   0.66394   1.000
    O275    O    0.14157   0.78808   0.64069   1.000
    O276    O    0.14222   0.85930   0.71040   1.000
    O277    O    0.21210   0.85800   0.63954   1.000
    Zr278   Zr   0.40777   0.99955   0.40809   1.000
    O279    O    0.42166   0.02201   0.39402   1.000
    O280    O    0.42233   0.97741   0.39415   1.000
    O281    O    0.39394   0.97714   0.42231   1.000
    O282    O    0.39338   0.02167   0.42223   1.000
    Zr283   Zr   0.83465   0.83518   0.66299   1.000
    O284    O    0.85883   0.85997   0.70902   1.000
    O285    O    0.78863   0.85901   0.63856   1.000
    O286    O    0.85879   0.78806   0.64044   1.000
    Zr287   Zr   0.66275   0.66505   0.33597   1.000
    O288    O    0.63880   0.64137   0.28956   1.000
    O289    O    0.70941   0.64004   0.35922   1.000
    O290    O    0.63924   0.71126   0.36036   1.000
    Zr291   Zr   0.08941   0.90603   0.00093   1.000
    O292    O    0.07502   0.89188   0.02306   1.000
    O293    O    0.10370   0.92064   0.97908   1.000
    O294    O    0.10366   0.92055   0.02285   1.000
    O295    O    0.07539   0.89176   0.97868   1.000
    Zr296   Zr   0.66618   0.66362   0.66320   1.000
    O297    O    0.71255   0.63894   0.64098   1.000
    O298    O    0.64209   0.70925   0.63746   1.000
    O299    O    0.64136   0.64127   0.71007   1.000
    Zr300   Zr   0.33515   0.66573   0.66532   1.000
    O301    O    0.36087   0.71125   0.64218   1.000
    O302    O    0.28936   0.64266   0.63967   1.000
    O303    O    0.35798   0.63948   0.71123   1.000
    Zr304   Zr   0.66371   0.33379   0.66360   1.000
    O305    O    0.63905   0.35795   0.70981   1.000
    O306    O    0.70973   0.35871   0.63946   1.000
    O307    O    0.64056   0.28717   0.64000   1.000
    Zr308   Zr   0.83468   0.16702   0.66343   1.000
    O309    O    0.85790   0.21290   0.63925   1.000
    O310    O    0.78838   0.14299   0.63958   1.000
    O311    O    0.86017   0.14286   0.70907   1.000
    Zr312   Zr   0.66358   0.33389   0.33645   1.000
    O313    O    0.71024   0.35730   0.36064   1.000
    O314    O    0.63947   0.35858   0.29076   1.000
    O315    O    0.63835   0.28817   0.35952   1.000
    Zr316   Zr   0.83432   0.83710   0.33523   1.000
    O317    O    0.85761   0.79031   0.35958   1.000
    O318    O    0.85833   0.86150   0.28923   1.000
    O319    O    0.78781   0.86152   0.35856   1.000
    Zr320   Zr   0.83599   0.16370   0.33594   1.000
    O321    O    0.86123   0.14140   0.28926   1.000
    O322    O    0.85882   0.21041   0.36072   1.000
    O323    O    0.78961   0.13890   0.35883   1.000
    Zr324   Zr   0.00135   0.09104   0.90683   1.000
    O325    O    0.97927   0.10559   0.92084   1.000
    O326    O    0.02371   0.10488   0.92116   1.000
    O327    O    0.97922   0.07697   0.89234   1.000
    O328    O    0.02332   0.07618   0.89298   1.000
    Zr329   Zr   0.09377   0.40950   0.49919   1.000
    O330    O    0.07963   0.39529   0.52145   1.000
    O331    O    0.07950   0.39520   0.47723   1.000
    O332    O    0.10743   0.42362   0.47658   1.000
    O333    O    0.10797   0.42370   0.52134   1.000
    Zr334   Zr   0.09201   0.59133   0.50080   1.000
    O335    O    0.10609   0.57698   0.47866   1.000
    O336    O    0.07749   0.60585   0.47890   1.000
    O337    O    0.10643   0.57687   0.52278   1.000
    O338    O    0.07756   0.60541   0.52286   1.000
    Zr339   Zr   0.40921   0.50113   0.90996   1.000
    O340    O    0.39475   0.47921   0.92442   1.000
    O341    O    0.42363   0.52280   0.89519   1.000
    O342    O    0.39558   0.52349   0.92438   1.000
    O343    O    0.42333   0.47910   0.89552   1.000
    Zr344   Zr   0.90790   0.90907   0.99819   1.000
    O345    O    0.89430   0.92342   0.97559   1.000
    O346    O    0.92215   0.89425   0.97650   1.000
    O347    O    0.92144   0.89470   0.02074   1.000
    O348    O    0.89384   0.92344   0.02027   1.000
    Zr349   Zr   0.99976   0.59233   0.41065   1.000
    O350    O    0.02192   0.57849   0.39622   1.000
    O351    O    0.97754   0.60665   0.42466   1.000
    O352    O    0.97806   0.57759   0.39625   1.000
    O353    O    0.02197   0.60647   0.42482   1.000
    Zr354   Zr   0.90857   0.40849   0.49941   1.000
    O355    O    0.92301   0.39463   0.47711   1.000
    O356    O    0.89401   0.42296   0.47748   1.000
    O357    O    0.92348   0.39422   0.52119   1.000
    O358    O    0.89453   0.42232   0.52198   1.000
    Zr359   Zr   0.40926   0.90829   0.49949   1.000
    O360    O    0.39493   0.92264   0.52148   1.000
    O361    O    0.39488   0.92232   0.47723   1.000
    O362    O    0.42355   0.89425   0.47726   1.000
    O363    O    0.42344   0.89428   0.52188   1.000
    Zr364   Zr   0.59192   0.49903   0.90938   1.000
    O365    O    0.60588   0.52149   0.92340   1.000
    O366    O    0.60554   0.47669   0.92407   1.000
    O367    O    0.57820   0.52125   0.89467   1.000
    O368    O    0.57780   0.47677   0.89526   1.000
    Zr369   Zr   0.90877   0.50026   0.40948   1.000
    O370    O    0.92346   0.52226   0.39549   1.000
    O371    O    0.89414   0.47818   0.42345   1.000
    O372    O    0.89467   0.52273   0.42343   1.000
    O373    O    0.92320   0.47791   0.39562   1.000
    Zr374   Zr   0.00143   0.40896   0.40931   1.000
    O375    O    0.02400   0.39479   0.42321   1.000
    O376    O    0.97893   0.42319   0.39557   1.000
    O377    O    0.02321   0.42352   0.39472   1.000
    O378    O    0.97893   0.39485   0.42312   1.000
    Zr379   Zr   0.91021   0.00009   0.90612   1.000
    O380    O    0.92411   0.97740   0.89240   1.000
    O381    O    0.89583   0.02226   0.92022   1.000
    O382    O    0.92456   0.02220   0.89190   1.000
    O383    O    0.89575   0.97811   0.92031   1.000
    Zr384   Zr   0.09169   0.08946   0.99906   1.000
    O385    O    0.07797   0.10390   0.97662   1.000
    O386    O    0.07742   0.10383   0.02109   1.000
    O387    O    0.10592   0.07502   0.97703   1.000
    O388    O    0.10556   0.07499   0.02142   1.000
    Zr389   Zr   0.09102   0.99790   0.90863   1.000
    O390    O    0.07682   0.97574   0.89434   1.000
    O391    O    0.10468   0.97579   0.92367   1.000
    O392    O    0.10551   0.01999   0.92269   1.000
    O393    O    0.07718   0.02020   0.89402   1.000
    Zr394   Zr   0.40878   0.41098   0.00217   1.000
    O395    O    0.42288   0.39670   0.97994   1.000
    O396    O    0.39446   0.42505   0.97987   1.000
    O397    O    0.39458   0.42533   0.02433   1.000
    O398    O    0.42331   0.39675   0.02427   1.000
    Zr399   Zr   0.09120   0.50111   0.40850   1.000
    O400    O    0.10558   0.52274   0.42327   1.000
    O401    O    0.07700   0.47906   0.39420   1.000
    O402    O    0.10578   0.47867   0.42205   1.000
    O403    O    0.07689   0.52372   0.39482   1.000
    Zr404   Zr   0.58949   0.09165   0.50112   1.000
    O405    O    0.57467   0.10558   0.52312   1.000
    O406    O    0.60411   0.07755   0.52322   1.000
    O407    O    0.60410   0.07805   0.47887   1.000
    O408    O    0.57524   0.10538   0.47863   1.000
    Zr409   Zr   0.99970   0.90695   0.90853   1.000
    O410    O    0.02143   0.89237   0.92318   1.000
    O411    O    0.02195   0.92108   0.89434   1.000
    O412    O    0.97729   0.89296   0.92256   1.000
    O413    O    0.97787   0.92143   0.89398   1.000
    Zr414   Zr   0.40726   0.08929   0.50004   1.000
    O415    O    0.42099   0.10359   0.52237   1.000
    O416    O    0.39329   0.07524   0.52236   1.000
    O417    O    0.42149   0.10367   0.47806   1.000
    O418    O    0.39313   0.07554   0.47755   1.000
    Zr419   Zr   0.59139   0.91026   0.50110   1.000
    O420    O    0.57735   0.89560   0.52307   1.000
    O421    O    0.60514   0.92452   0.52341   1.000
    O422    O    0.60565   0.92478   0.47921   1.000
    O423    O    0.57755   0.89616   0.47874   1.000
    Zr424   Zr   0.59185   0.59100   0.00010   1.000
    O425    O    0.57778   0.60499   0.97770   1.000
    O426    O    0.60576   0.57670   0.97792   1.000
    O427    O    0.60636   0.57689   0.02215   1.000
    O428    O    0.57822   0.60556   0.02236   1.000
    Zr429   Zr   0.50176   0.59067   0.90751   1.000
    O430    O    0.52399   0.57635   0.89349   1.000
    O431    O    0.47933   0.57651   0.89367   1.000
    O432    O    0.52379   0.60475   0.92196   1.000
    O433    O    0.48009   0.60548   0.92183   1.000
    Zr434   Zr   0.49968   0.40933   0.90938   1.000
    O435    O    0.47774   0.42398   0.89509   1.000
    O436    O    0.52237   0.42283   0.89516   1.000
    O437    O    0.47737   0.39575   0.92414   1.000
    O438    O    0.52156   0.39487   0.92385   1.000
    Zr439   Zr   0.41200   0.59363   0.99994   1.000
    O440    O    0.42586   0.60774   0.02235   1.000
    O441    O    0.39758   0.57974   0.02209   1.000
    O442    O    0.39731   0.57909   0.97839   1.000
    O443    O    0.42623   0.60733   0.97741   1.000
    Zr444   Zr   0.49839   0.09100   0.40859   1.000
    O445    O    0.47620   0.10477   0.42311   1.000
    O446    O    0.47607   0.07703   0.39425   1.000
    O447    O    0.52063   0.10503   0.42296   1.000
    O448    O    0.52064   0.07699   0.39439   1.000
    Zr449   Zr   0.50066   0.90969   0.40918   1.000
    O450    O    0.47817   0.92344   0.39485   1.000
    O451    O    0.52252   0.92438   0.39507   1.000
    O452    O    0.52309   0.89573   0.42347   1.000
    O453    O    0.47856   0.89519   0.42305   1.000
    Zr454   Zr   0.59126   0.00160   0.40957   1.000
    O455    O    0.57705   0.97950   0.39529   1.000
    O456    O    0.57656   0.02337   0.39502   1.000
    O457    O    0.60516   0.02396   0.42380   1.000
    O458    O    0.60558   0.97961   0.42417   1.000
    Zr459   Zr   0.58976   0.40806   0.00157   1.000
    O460    O    0.57562   0.39410   0.02395   1.000
    O461    O    0.60414   0.42201   0.97940   1.000
    O462    O    0.60456   0.42204   0.02337   1.000
    O463    O    0.57561   0.39414   0.97932   1.000
loop_
    _geom_bond_atom_site_label_1
    _geom_bond_atom_site_label_2
    _geom_bond_distance
    _geom_bond_site_symmetry_2
    _ccdc_geom_bond_type
    Zr96   O97       2.14259  1_655   S
    N19    O97       3.21700      .   S
    Zr96   O98       2.14590      .   S
    N3     O98       3.22045      .   S
    Zr96   O99       2.14694      .   S
    N14    O99       3.22289      .   S
    Zr96   O100      2.14645  1_655   S
    N1     O100      3.22187      .   S
    Zr101  O102      2.14509      .   S
    N14    O102      3.21966      .   S
    Zr101  O103      2.14707      .   S
    N2     O103      3.22296      .   S
    Zr101  O104      2.14460  1_545   S
    N12    O104      3.21934      .   S
    Zr101  O105      2.14693  1_545   S
    N17    O105      3.22282      .   S
    Zr106  O107      2.14019      .   S
    N21    O107      3.21411      .   S
    Zr106  O108      2.14135      .   S
    N18    O108      3.21412      .   S
    Zr106  O109      2.13945  1_565   S
    N0     O109      3.21274      .   S
    Zr106  O110      2.14271  1_565   S
    N19    O110      3.21609      .   S
    Zr111  O112      2.14006      .   S
    N23    O112      3.21218      .   S
    Zr111  O113      2.13913      .   S
    N13    O113      3.21250      .   S
    Zr111  O114      2.13837      .   S
    N20    O114      3.21166      .   S
    Zr111  O115      2.14069      .   S
    N10    O115      3.21279      .   S
    Zr116  O117      2.14175      .   S
    N20    O117      3.21550      .   S
    Zr116  O118      2.14129      .   S
    N5     O118      3.21475      .   S
    Zr116  O119      2.14275      .   S
    N16    O119      3.21663      .   S
    Zr116  O120      2.14135      .   S
    N7     O120      3.21453      .   S
    Zr121  O122      2.14087  1_655   S
    N22    O122      3.21397      .   S
    Zr121  O123      2.14053      .   S
    N17    O123      3.21368      .   S
    Zr121  O124      2.14240  1_655   S
    N18    O124      3.21610      .   S
    Zr121  O125      2.14244      .   S
    N6     O125      3.21662      .   S
    Zr126  O127      2.14831      .   S
    N15    O127      3.22439      .   S
    Zr126  O128      2.14118      .   S
    N8     O128      3.21593      .   S
    Zr126  O129      2.14303      .   S
    N9     O129      3.21898      .   S
    Zr126  O130      2.14403      .   S
    N13    O130      3.21773      .   S
    Zr131  O132      2.14140      .   S
    N4     O132      3.21451      .   S
    Zr131  O133      2.14495      .   S
    N16    O133      3.22104      .   S
    Zr131  O134      2.14039      .   S
    N15    O134      3.21369      .   S
    Zr131  O135      2.14675      .   S
    N11    O135      3.22210      .   S
    Zr136  O137      4.12367      .   S
    N12    O137     14.48121      .   S
    Zr136  O138      4.11321      .   S
    N5     O138     14.47995      .   S
    Zr136  O139      4.11318      .   S
    N88    O139     14.44219      .   S
    Zr140  O141      4.09108      .   S
    N82    O141     14.40489      .   S
    Zr140  O142      4.13120      .   S
    N9     O142     14.49246      .   S
    Zr140  O143      4.10897      .   S
    N2     O143     14.46602      .   S
    Zr144  O145      4.12982      .   S
    N92    O145     14.49806      .   S
    Zr144  O146      4.12732      .   S
    N0     O146     14.48389      .   S
    Zr144  O147      4.09636      .   S
    N8     O147     14.42659      .   S
    Zr148  O149      4.10311      .   S
    N21    O149     14.44639      .   S
    Zr148  O150      4.09774      .   S
    N65    O150     14.43172      .   S
    Zr148  O151      4.09809      .   S
    N7     O151     14.43569      .   S
    Zr152  O153      4.10828      .   S
    N6     O153     14.46293      .   S
    Zr152  O154      4.08877      .   S
    N10    O154     14.43692      .   S
    Zr152  O155      4.09879      .   S
    N85    O155     14.41897      .   S
    Zr156  O157      4.10059      .   S
    N23    O157     14.44459      .   S
    Zr156  O158      4.09383      .   S
    N76    O158     14.42267      .   S
    Zr156  O159      4.13041      .   S
    N3     O159     14.50338      .   S
    Zr160  O161      4.09540      .   S
    N4     O161     14.42712      .   S
    Zr160  O162      4.10566      .   S
    N22    O162     14.44816      .   S
    Zr160  O163      4.10191      .   S
    N75    O163     14.43608      .   S
    Zr164  O165      4.10546      .   S
    N1     O165     14.46946      .   S
    Zr164  O166      4.12770      .   S
    N86    O166     14.49159      .   S
    Zr164  O167      4.13871      .   S
    N11    O167     14.52710      .   S
    Zr168  O169      4.10630      .   S
    N93    O169     14.45472      .   S
    Zr168  O170      4.09067      .   S
    N80    O170     14.41373      .   S
    Zr168  O171      4.09885      .   S
    N15    O171     14.41788      .   S
    Zr172  O173      4.12755      .   S
    N32    O173     14.48773      .   S
    Zr172  O174      4.09369      .   S
    N47    O174     14.43990      .   S
    Zr172  O175      4.11648      .   S
    N68    O175     14.45262      .   S
    Zr176  O177      4.10556      .   S
    N44    O177     14.45863      .   S
    Zr176  O178      4.12315      .   S
    N73    O178     14.47023      .   S
    Zr176  O179      4.09901      .   S
    N34    O179     14.43970      .   S
    Zr180  O181      4.08787      .   S
    N37    O181     14.40898      .   S
    Zr180  O182      4.11417      .   S
    N41    O182     14.45991      .   S
    Zr180  O183      4.09515      .   S
    N69    O183     14.43544      .   S
    Zr184  O185      4.12331      .   S
    N72    O185     14.46121      .   S
    Zr184  O186      4.11191      .   S
    N35    O186     14.42697      .   S
    Zr184  O187      4.10989      .   S
    N43    O187     14.45572      .   S
    Zr188  O189      4.11688      .   S
    N64    O189     14.45447      .   S
    Zr188  O190      4.10889      .   S
    N38    O190     14.41824      .   S
    Zr188  O191      4.11104      .   S
    N42    O191     14.45100      .   S
    Zr192  O193      4.10183      .   S
    N67    O193     14.44130      .   S
    Zr192  O194      4.11451      .   S
    N36    O194     14.44924      .   S
    Zr192  O195      4.11051      .   S
    N40    O195     14.46661      .   S
    Zr196  O197      4.12912      .   S
    N70    O197     14.48567      .   S
    Zr196  O198      4.12215      .   S
    N33    O198     14.47243      .   S
    Zr196  O199      4.11680      .   S
    N45    O199     14.48885      .   S
    Zr200  O201      4.10043      .   S
    N71    O201     14.43243      .   S
    Zr200  O202      4.11586      .   S
    N39    O202     14.47530      .   S
    Zr200  O203      4.08240      .   S
    N46    O203     14.42465      .   S
    Zr204  O205      2.14095      .   S
    N53    O205      3.21452      .   S
    Zr204  O206      2.14203      .   S
    N71    O206      3.21584      .   S
    Zr204  O207      2.14377      .   S
    N70    O207      3.21823      .   S
    Zr204  O208      2.14345      .   S
    N56    O208      3.21829      .   S
    Zr209  O210      2.13995      .   S
    N59    O210      3.21346      .   S
    Zr209  O211      2.14127      .   S
    N64    O211      3.21448      .   S
    Zr209  O212      2.13937  1_565   S
    N50    O212      3.21257      .   S
    Zr209  O213      2.14091  1_565   S
    N70    O213      3.21393      .   S
    Zr214  O215      2.14146      .   S
    N73    O215      3.21546      .   S
    Zr214  O216      2.14094      .   S
    N63    O216      3.21391      .   S
    Zr214  O217      2.14292  1_455   S
    N48    O217      3.21646      .   S
    Zr214  O218      2.14012  1_455   S
    N67    O218      3.21355      .   S
    Zr219  O220      2.14203      .   S
    N58    O220      3.21576      .   S
    Zr219  O221      2.14242      .   S
    N69    O221      3.21645      .   S
    Zr219  O222      2.13623      .   S
    N64    O222      3.20781      .   S
    Zr219  O223      2.13787      .   S
    N61    O223      3.20961      .   S
    Zr224  O225      2.13892  1_455   S
    N68    O225      3.21147      .   S
    Zr224  O226      2.13786  1_455   S
    N54    O226      3.20995      .   S
    Zr224  O227      2.13819      .   S
    N62    O227      3.21073      .   S
    Zr224  O228      2.13922      .   S
    N72    O228      3.21176      .   S
    Zr229  O230      2.14372      .   S
    N49    O230      3.21886      .   S
    Zr229  O231      2.14324      .   S
    N73    O231      3.21795      .   S
    Zr229  O232      2.14174      .   S
    N52    O232      3.21596      .   S
    Zr229  O233      2.14296      .   S
    N72    O233      3.21808      .   S
    Zr234  O235      2.13803      .   S
    N71    O235      3.20937      .   S
    Zr234  O236      2.13897      .   S
    N60    O236      3.21183      .   S
    Zr234  O237      2.13227  1_545   S
    N55    O237      3.20302      .   S
    Zr234  O238      2.13797  1_545   S
    N69    O238      3.20965      .   S
    Zr239  O240      2.14339      .   S
    N68    O240      3.21781      .   S
    Zr239  O241      2.14369      .   S
    N57    O241      3.21795      .   S
    Zr239  O242      2.14199      .   S
    N67    O242      3.21584      .   S
    Zr239  O243      2.13891      .   S
    N51    O243      3.21184      .   S
    Zr244  O245      4.09243      .   S
    N26    O245     14.41145      .   S
    Zr244  O246      4.09631      .   S
    N50    O246     14.43212      .   S
    Zr244  O247      4.09831      .   S
    N63    O247     14.43563      .   S
    Zr248  O249      2.14600      .   S
    N57    O249      3.22234      .   S
    Zr248  O250      2.14238      .   S
    N54    O250      3.21705      .   S
    Zr248  O251      2.14179      .   S
    N94    O251      3.21545      .   S
    Zr248  O252      2.14195      .   S
    N74    O252      3.21672      .   S
    Zr253  O254      4.11950      .   S
    N18    O254     14.46743      .   S
    Zr253  O255      4.09507      .   S
    N79    O255     14.41686      .   S
    Zr253  O256      4.10135      .   S
    N89    O256     14.44794      .   S
    Zr257  O258      4.10691      .   S
    N49    O258     14.45030      .   S
    Zr257  O259      4.09992      .   S
    N56    O259     14.42556      .   S
    Zr257  O260      4.11303      .   S
    N29    O260     14.43389      .   S
    Zr261  O262      4.09101      .   S
    N87    O262     14.41857      .   S
    Zr261  O263      4.10226      .   S
    N83    O263     14.43914      .   S
    Zr261  O264      4.13244      .   S
    N16    O264     14.49755      .   S
    Zr265  O266      4.10525      .   S
    N66    O266     14.47320      .   S
    Zr265  O267      4.08328      .   S
    N81    O267     14.45636      .   S
    Zr265  O268      4.10025      .   S
    N19    O268     14.44971      .   S
    Zr269  O270      2.14284  1_556   S
    N3     O270      3.21704      .   S
    Zr269  O271      2.14562      .   S
    N40    O271      3.22088      .   S
    Zr269  O272      2.14719      .   S
    N39    O272      3.22353      .   S
    Zr269  O273      2.14178  1_556   S
    N2     O273      3.21598      .   S
    Zr274  O275      4.10253      .   S
    N62    O275     14.43848      .   S
    Zr274  O276      4.12907      .   S
    N27    O276     14.48543      .   S
    Zr274  O277      4.11414      .   S
    N59    O277     14.43639      .   S
    Zr278  O279      2.14092  1_565   S
    N92    O279      3.21425      .   S
    Zr278  O280      2.14321      .   S
    N65    O280      3.21734      .   S
    Zr278  O281      2.14079      .   S
    N89    O281      3.21374      .   S
    Zr278  O282      2.14245  1_565   S
    N66    O282      3.21635      .   S
    Zr283  O284      4.12621      .   S
    N30    O284     14.48129      .   S
    Zr283  O285      4.09000      .   S
    N55    O285     14.40635      .   S
    Zr283  O286      4.11762      .   S
    N54    O286     14.44655      .   S
    Zr287  O288      4.10740      .   S
    N20    O288     14.42375      .   S
    Zr287  O289      4.12755      .   S
    N94    O289     14.48558      .   S
    Zr287  O290      4.10047      .   S
    N77    O290     14.44000      .   S
    Zr291  O292      2.14399      .   S
    N22    O292      3.21854      .   S
    Zr291  O293      2.14160  1_554   S
    N38    O293      3.21612      .   S
    Zr291  O294      2.14125      .   S
    N21    O294      3.21606      .   S
    Zr291  O295      2.14336  1_554   S
    N43    O295      3.21785      .   S
    Zr296  O297      4.08125      .   S
    N57    O297     14.34349      .   S
    Zr296  O298      4.11517      .   S
    N61    O298     14.45582      .   S
    Zr296  O299      4.11973      .   S
    N31    O299     14.47893      .   S
    Zr300  O301      4.09013      .   S
    N58    O301     14.43131      .   S
    Zr300  O302      4.10328      .   S
    N52    O302     14.43661      .   S
    Zr300  O303      4.11311      .   S
    N28    O303     14.43862      .   S
    Zr304  O305      4.13389      .   S
    N24    O305     14.51635      .   S
    Zr304  O306      4.12664      .   S
    N51    O306     14.49263      .   S
    Zr304  O307      4.09315      .   S
    N53    O307     14.42049      .   S
    Zr308  O309      4.06429      .   S
    N48    O309     14.40292      .   S
    Zr308  O310      4.10473      .   S
    N60    O310     14.45889      .   S
    Zr308  O311      4.11315      .   S
    N25    O311     14.46900      .   S
    Zr312  O313      4.11756      .   S
    N91    O313     14.47828      .   S
    Zr312  O314      4.08886      .   S
    N13    O314     14.42075      .   S
    Zr312  O315      4.08403      .   S
    N78    O315     14.41187      .   S
    Zr316  O317      4.11493      .   S
    N74    O317     14.48005      .   S
    Zr316  O318      4.10465      .   S
    N17    O318     14.44915      .   S
    Zr316  O319      4.11281      .   S
    N95    O319     14.43879      .   S
    Zr320  O321      4.12536      .   S
    N14    O321     14.49345      .   S
    Zr320  O322      4.12483      .   S
    N84    O322     14.49126      .   S
    Zr320  O323      4.10672      .   S
    N90    O323     14.47276      .   S
    Zr324  O325      2.14210  1_455   S
    N40    O325      3.21553      .   S
    Zr324  O326      2.14405      .   S
    N34    O326      3.21860      .   S
    Zr324  O327      2.14472  1_455   S
    N25    O327      3.22031      .   S
    Zr324  O328      2.14129      .   S
    N26    O328      3.21537      .   S
    Zr329  O330      2.14415      .   S
    N63    O330      3.21938      .   S
    Zr329  O331      2.13745      .   S
    N81    O331      3.21006      .   S
    Zr329  O332      2.14425      .   S
    N93    O332      3.21855      .   S
    Zr329  O333      2.14074      .   S
    N49    O333      3.21295      .   S
    Zr334  O335      2.14271      .   S
    N87    O335      3.21744      .   S
    Zr334  O336      2.14273      .   S
    N79    O336      3.21751      .   S
    Zr334  O337      2.14289      .   S
    N52    O337      3.21720      .   S
    Zr334  O338      2.14189      .   S
    N62    O338      3.21674      .   S
    Zr339  O340      2.14512      .   S
    N44    O340      3.21968      .   S
    Zr339  O341      2.14066      .   S
    N28    O341      3.21524      .   S
    Zr339  O342      2.14000      .   S
    N35    O342      3.21297      .   S
    Zr339  O343      2.13919      .   S
    N29    O343      3.21242      .   S
    Zr344  O345      2.14380      .   S
    N41    O345      3.21784      .   S
    Zr344  O346      2.14158      .   S
    N32    O346      3.21522      .   S
    Zr344  O347      2.14009  1_556   S
    N6     O347      3.21396      .   S
    Zr344  O348      2.13931  1_556   S
    N12    O348      3.21177      .   S
    Zr349  O350      2.13637  1_655   S
    N75    O350      3.20878      .   S
    Zr349  O351      2.14166      .   S
    N74    O351      3.21449      .   S
    Zr349  O352      2.14210      .   S
    N85    O352      3.21649      .   S
    Zr349  O353      2.14024  1_655   S
    N79    O353      3.21326      .   S
    Zr354  O355      2.14732      .   S
    N84    O355      3.22388      .   S
    Zr354  O356      2.14459      .   S
    N91    O356      3.21932      .   S
    Zr354  O357      2.14238      .   S
    N48    O357      3.21739      .   S
    Zr354  O358      2.14705      .   S
    N51    O358      3.22284      .   S
    Zr359  O360      2.14391      .   S
    N59    O360      3.21936      .   S
    Zr359  O361      2.14023      .   S
    N89    O361      3.21335      .   S
    Zr359  O362      2.14437      .   S
    N83    O362      3.21868      .   S
    Zr359  O363      2.14051      .   S
    N58    O363      3.21335      .   S
    Zr364  O365      2.14352      .   S
    N47    O365      3.21758      .   S
    Zr364  O366      2.14137      .   S
    N36    O366      3.21431      .   S
    Zr364  O367      2.13893      .   S
    N31    O367      3.21157      .   S
    Zr364  O368      2.14223      .   S
    N24    O368      3.21644      .   S
    Zr369  O370      2.14139      .   S
    N85    O370      3.21553      .   S
    Zr369  O371      2.14220      .   S
    N91    O371      3.21549      .   S
    Zr369  O372      2.14573      .   S
    N94    O372      3.22117      .   S
    Zr369  O373      2.14696      .   S
    N76    O373      3.22315      .   S
    Zr374  O375      2.14540      .   S
    N81    O375      3.21896      .   S
    Zr374  O376      2.13791  1_455   S
    N76    O376      3.21104      .   S
    Zr374  O377      2.14701      .   S
    N86    O377      3.22356      .   S
    Zr374  O378      2.14337  1_455   S
    N84    O378      3.21746      .   S
    Zr379  O380      2.14250  1_545   S
    N30    O380      3.21576      .   S
    Zr379  O381      2.14351      .   S
    N39    O381      3.21845      .   S
    Zr379  O382      2.14283      .   S
    N25    O382      3.21599      .   S
    Zr379  O383      2.13822  1_545   S
    N41    O383      3.21114      .   S
    Zr384  O385      2.14241      .   S
    N34    O385      3.21653      .   S
    Zr384  O386      2.14444  1_556   S
    N1     O386      3.21922      .   S
    Zr384  O387      2.14476      .   S
    N45    O387      3.22009      .   S
    Zr384  O388      2.14416  1_556   S
    N0     O388      3.21936      .   S
    Zr389  O390      2.14470      .   S
    N27    O390      3.21971      .   S
    Zr389  O391      2.14289      .   S
    N38    O391      3.21774      .   S
    Zr389  O392      2.14353  1_565   S
    N45    O392      3.21824      .   S
    Zr389  O393      2.14412  1_565   S
    N26    O393      3.21873      .   S
    Zr394  O395      2.14560  1_554   S
    N33    O395      3.22129      .   S
    Zr394  O396      2.14256  1_554   S
    N44    O396      3.21677      .   S
    Zr394  O397      2.14790      .   S
    N11    O397      3.22423      .   S
    Zr394  O398      2.14403      .   S
    N8     O398      3.21938      .   S
    Zr399  O400      2.13964      .   S
    N87    O400      3.21280      .   S
    Zr399  O401      2.13977      .   S
    N86    O401      3.21168      .   S
    Zr399  O402      2.14046      .   S
    N93    O402      3.21435      .   S
    Zr399  O403      2.14432      .   S
    N75    O403      3.21846      .   S
    Zr404  O405      2.14684      .   S
    N53    O405      3.22271      .   S
    Zr404  O406      2.14276      .   S
    N60    O406      3.21681      .   S
    Zr404  O407      2.14150      .   S
    N90    O407      3.21578      .   S
    Zr404  O408      2.13893      .   S
    N78    O408      3.21156      .   S
    Zr409  O410      2.14060  1_655   S
    N43    O410      3.21355      .   S
    Zr409  O411      2.14351  1_655   S
    N27    O411      3.21825      .   S
    Zr409  O412      2.14166      .   S
    N32    O412      3.21611      .   S
    Zr409  O413      2.13842      .   S
    N30    O413      3.21110      .   S
    Zr414  O415      2.13867      .   S
    N56    O415      3.21191      .   S
    Zr414  O416      2.13668      .   S
    N50    O416      3.20760      .   S
    Zr414  O417      2.13785      .   S
    N80    O417      3.21000      .   S
    Zr414  O418      2.14169      .   S
    N66    O418      3.21442      .   S
    Zr419  O420      2.14058      .   S
    N61    O420      3.21352      .   S
    Zr419  O421      2.13646      .   S
    N55    O421      3.20795      .   S
    Zr419  O422      2.13968      .   S
    N95    O422      3.21276      .   S
    Zr419  O423      2.13715      .   S
    N77    O423      3.20894      .   S
    Zr424  O425      2.13661  1_554   S
    N37    O425      3.20769      .   S
    Zr424  O426      2.13743  1_554   S
    N47    O426      3.20963      .   S
    Zr424  O427      2.13709      .   S
    N10    O427      3.20917      .   S
    Zr424  O428      2.14183      .   S
    N5     O428      3.21476      .   S
    Zr429  O430      2.14243      .   S
    N31    O430      3.21520      .   S
    Zr429  O431      2.14194      .   S
    N28    O431      3.21506      .   S
    Zr429  O432      2.13791      .   S
    N37    O432      3.21109      .   S
    Zr429  O433      2.13978      .   S
    N42    O433      3.21364      .   S
    Zr434  O435      2.14088      .   S
    N29    O435      3.21385      .   S
    Zr434  O436      2.14746      .   S
    N24    O436      3.22338      .   S
    Zr434  O437      2.14797      .   S
    N33    O437      3.22529      .   S
    Zr434  O438      2.13790      .   S
    N46    O438      3.21014      .   S
    Zr439  O440      2.13996  1_556   S
    N7     O440      3.21158      .   S
    Zr439  O441      2.13720  1_556   S
    N4     O441      3.21072      .   S
    Zr439  O442      2.13900      .   S
    N35    O442      3.21273      .   S
    Zr439  O443      2.14453      .   S
    N42    O443      3.21831      .   S
    Zr444  O445      2.13923      .   S
    N80    O445      3.21180      .   S
    Zr444  O446      2.14584      .   S
    N92    O446      3.22111      .   S
    Zr444  O447      2.14517      .   S
    N78    O447      3.22067      .   S
    Zr444  O448      2.13925      .   S
    N82    O448      3.21154      .   S
    Zr449  O450      2.14119      .   S
    N65    O450      3.21504      .   S
    Zr449  O451      2.13960      .   S
    N88    O451      3.21208      .   S
    Zr449  O452      2.14372      .   S
    N77    O452      3.21803      .   S
    Zr449  O453      2.13734      .   S
    N83    O453      3.20891      .   S
    Zr454  O455      2.14180  1_545   S
    N88    O455      3.21661      .   S
    Zr454  O456      2.14239      .   S
    N82    O456      3.21726      .   S
    Zr454  O457      2.14346      .   S
    N90    O457      3.21732      .   S
    Zr454  O458      2.14277  1_545   S
    N95    O458      3.21710      .   S
    Zr459  O460      2.14247      .   S
    N9     O460      3.21583      .   S
    Zr459  O461      2.13904  1_554   S
    N36    O461      3.21237      .   S
    Zr459  O462      2.13557      .   S
    N23    O462      3.20737      .   S
    Zr459  O463      2.13566  1_554   S
    N46    O463      3.20591      .   S
