# CIF file generated by openbabel 2.4.90, see http://openbabel.sf.net
data_I
_chemical_name_common ''
_cell_length_a 11.6884
_cell_length_b 5.5643
_cell_length_c 22.8159
_cell_angle_alpha 90
_cell_angle_beta 100.691
_cell_angle_gamma 90
_space_group_name_H-M_alt 'P 1'
_space_group_name_Hall 'P 1'
loop_
    _symmetry_equiv_pos_as_xyz
    x,y,z
loop_
    _atom_site_label
    _atom_site_type_symbol
    _atom_site_fract_x
    _atom_site_fract_y
    _atom_site_fract_z
    _atom_site_occupancy
    Zr0     Zr   0.86258   0.75633   0.27818   1.000
    Zr1     Zr   0.63742   0.25633   0.22182   1.000
    Zr2     Zr   0.13742   0.24367   0.72182   1.000
    Zr3     Zr   0.36258   0.74367   0.77818   1.000
    N4      N    0.59295   0.40743   0.89140   1.000
    O5      O    0.46935   0.70670   0.84727   1.000
    N6      N    0.40705   0.59256   0.10860   1.000
    O7      O    0.53065   0.29330   0.15273   1.000
    N8      N    0.90704   0.90743   0.60860   1.000
    O9      O    0.03065   0.20670   0.65273   1.000
    N10     N    0.09295   0.09257   0.39140   1.000
    O11     O    0.96935   0.79330   0.34727   1.000
    C12     C    0.51620   0.72787   0.25366   1.000
    O13     O    0.54569   0.55898   0.24566   1.000
    O14     O    0.55298   0.90772   0.24344   1.000
    O15     O    0.44704   0.76575   0.27938   1.000
    C16     C    0.98380   0.22787   0.24634   1.000
    O17     O    0.05296   0.26575   0.22062   1.000
    O18     O    0.95431   0.05898   0.25435   1.000
    O19     O    0.94702   0.40772   0.25656   1.000
    C20     C    0.76597   0.27437   0.32724   1.000
    O21     O    0.78549   0.23601   0.37575   1.000
    O22     O    0.78870   0.09751   0.31043   1.000
    O23     O    0.78958   0.44541   0.31513   1.000
    C24     C    0.73403   0.77437   0.17276   1.000
    O25     O    0.71042   0.94541   0.18487   1.000
    O26     O    0.71130   0.59751   0.18957   1.000
    O27     O    0.71451   0.73601   0.12425   1.000
    C28     C    0.48380   0.27213   0.74634   1.000
    O29     O    0.45431   0.44102   0.75435   1.000
    O30     O    0.44702   0.09228   0.75656   1.000
    O31     O    0.55296   0.23425   0.72062   1.000
    C32     C    0.23403   0.72563   0.67276   1.000
    O33     O    0.21451   0.76399   0.62425   1.000
    O34     O    0.21042   0.55459   0.68487   1.000
    O35     O    0.21130   0.90249   0.68957   1.000
    C36     C    0.26597   0.22563   0.82724   1.000
    O37     O    0.28549   0.26399   0.87575   1.000
    O38     O    0.28870   0.40249   0.81043   1.000
    O39     O    0.28958   0.05459   0.81513   1.000
    C40     C    0.01620   0.77213   0.75366   1.000
    O41     O    0.94704   0.73425   0.77938   1.000
    O42     O    0.05298   0.59228   0.74344   1.000
    O43     O    0.04569   0.94102   0.74566   1.000
    O44     O    0.73285   0.27146   0.29869   1.000
    O45     O    0.23285   0.22854   0.79869   1.000
    O46     O    0.26715   0.72854   0.70131   1.000
    O47     O    0.76715   0.77146   0.20131   1.000
loop_
    _geom_bond_atom_site_label_1
    _geom_bond_atom_site_label_2
    _geom_bond_distance
    _geom_bond_site_symmetry_2
    _ccdc_geom_bond_type
    N4     O5        2.30961      .   S
    Zr3    O5        1.83159      .   S
    N6     O7        2.30961      .   S
    Zr1    O7        1.83159      .   S
    N8     O9        2.30961  1_665   S
    Zr2    O9        1.83159      .   S
    N10    O11       2.30961  1_445   S
    Zr0    O11       1.83159      .   S
    C12    O13       1.02898      .   S
    Zr1    O13       2.12072      .   S
    C12    O14       1.13043      .   S
    Zr1    O14       2.27173  1_545   S
    C12    O15       1.10373      .   S
    N10    O15       5.55809  1_545   S
    C16    O17       1.10373  1_655   S
    N6     O17       5.55809      .   S
    C16    O18       1.02898      .   S
    Zr0    O18       2.12072  1_565   S
    C16    O19       1.13043      .   S
    Zr0    O19       2.27173      .   S
    C20    O21       1.10865      .   S
    N8     O21       5.54845  1_565   S
    C20    O22       1.10632      .   S
    Zr0    O22       2.26426  1_565   S
    C20    O23       1.04232      .   S
    Zr0    O23       2.16771      .   S
    C24    O25       1.04232      .   S
    Zr1    O25       2.16771  1_545   S
    C24    O26       1.10632      .   S
    Zr1    O26       2.26426      .   S
    C24    O27       1.10865      .   S
    N4     O27       5.54845  1_556   S
    C28    O29       1.02898      .   S
    Zr3    O29       2.12072      .   S
    C28    O30       1.13043      .   S
    Zr3    O30       2.27173  1_565   S
    C28    O31       1.10373      .   S
    N8     O31       5.55809  1_565   S
    C32    O33       1.10865      .   S
    N10    O33       5.54845  1_545   S
    C32    O34       1.04232      .   S
    Zr2    O34       2.16771      .   S
    C32    O35       1.10632      .   S
    Zr2    O35       2.26426  1_545   S
    C36    O37       1.10865      .   S
    N6     O37       5.54845  1_554   S
    C36    O38       1.10632      .   S
    Zr3    O38       2.26426      .   S
    C36    O39       1.04232      .   S
    Zr3    O39       2.16771  1_565   S
    C40    O41       1.10373  1_455   S
    N4     O41       5.55809      .   S
    C40    O42       1.13043      .   S
    Zr2    O42       2.27173      .   S
    C40    O43       1.02898      .   S
    Zr2    O43       2.12072  1_545   S
    Zr1    O44       1.89781      .   S
    C20    O44       0.69331      .   S
    C36    O45       0.69331      .   S
    Zr2    O45       1.89781      .   S
    C32    O46       0.69331      .   S
    Zr3    O46       1.89781      .   S
    C24    O47       0.69331      .   S
    Zr0    O47       1.89781      .   S
