# CIF file generated by openbabel 2.4.90, see http://openbabel.sf.net
data_I
_chemical_name_common ''
_cell_length_a 18.5949
_cell_length_b 18.5949
_cell_length_c 18.595
_cell_angle_alpha 89.9998
_cell_angle_beta 120
_cell_angle_gamma 120
_space_group_name_H-M_alt 'P 1'
_space_group_name_Hall 'P 1'
loop_
    _symmetry_equiv_pos_as_xyz
    x,y,z
loop_
    _atom_site_label
    _atom_site_type_symbol
    _atom_site_fract_x
    _atom_site_fract_y
    _atom_site_fract_z
    _atom_site_occupancy
    N0      N    0.31391   0.65695   0.34305   1.000
    N1      N    0.68609   0.65695   0.34305   1.000
    N2      N    0.31391   0.97086   0.65695   1.000
    N3      N    0.68610   0.34305   0.02914   1.000
    N4      N    0.31391   0.34305   0.65695   1.000
    N5      N    0.68609   0.34305   0.65695   1.000
    N6      N    0.68609   0.02914   0.34305   1.000
    N7      N    0.31390   0.65695   0.97086   1.000
    Zr8     Zr   0.50000   0.50000   0.00000   1.000
    O9      O    0.57604   0.56208   0.13812   1.000
    O10     O    0.42396   0.56207   0.98603   1.000
    O11     O    0.57604   0.43793   0.01397   1.000
    O12     O    0.42396   0.43793   0.86188   1.000
    Zr13    Zr   0.00000   0.50000   0.00000   1.000
    O14     O    0.87585   0.43793   0.01397   1.000
    O15     O    0.12415   0.56207   0.13812   1.000
    O16     O    0.12415   0.56207   0.98603   1.000
    O17     O    0.87585   0.43793   0.86188   1.000
    Zr18    Zr   0.00000   0.00000   0.50000   1.000
    O19     O    0.87585   0.86188   0.43793   1.000
    O20     O    0.87585   0.01397   0.43793   1.000
    O21     O    0.12415   0.13812   0.56207   1.000
    O22     O    0.12415   0.98603   0.56207   1.000
    Zr23    Zr   0.50000   0.00000   0.00000   1.000
    O24     O    0.57604   0.01397   0.13812   1.000
    O25     O    0.42396   0.86188   0.98603   1.000
    O26     O    0.57604   0.13812   0.01397   1.000
    O27     O    0.42396   0.98603   0.86188   1.000
    Zr28    Zr   0.50000   0.50000   0.50000   1.000
    O29     O    0.42396   0.56207   0.43793   1.000
    O30     O    0.57604   0.56207   0.43793   1.000
    O31     O    0.57604   0.43792   0.56208   1.000
    O32     O    0.42396   0.43793   0.56207   1.000
    Zr33    Zr   0.50000   0.00000   0.50000   1.000
    O34     O    0.42396   0.86188   0.43793   1.000
    O35     O    0.57604   0.01397   0.43793   1.000
    O36     O    0.57604   0.13812   0.56208   1.000
    O37     O    0.42396   0.98603   0.56207   1.000
loop_
    _geom_bond_atom_site_label_1
    _geom_bond_atom_site_label_2
    _geom_bond_distance
    _geom_bond_site_symmetry_2
    _ccdc_geom_bond_type
    Zr8    O9        2.15969      .   S
    N1     O9        3.22694      .   S
    Zr8    O10       2.15968  1_554   S
    N7     O10       3.22694      .   S
    Zr8    O11       2.15967      .   S
    N3     O11       3.22691      .   S
    Zr8    O12       2.15966  1_554   S
    N4     O12       3.22693      .   S
    Zr13   O14       2.15963  1_455   S
    N3     O14       3.22687      .   S
    Zr13   O15       2.15966      .   S
    N0     O15       3.22690      .   S
    Zr13   O16       2.15961  1_554   S
    N7     O16       3.22683      .   S
    Zr13   O17       2.15964  1_454   S
    N5     O17       3.22690      .   S
    Zr18   O19       2.15965  1_445   S
    N1     O19       3.22687      .   S
    Zr18   O20       2.15966  1_455   S
    N6     O20       3.22689      .   S
    Zr18   O21       2.15965      .   S
    N4     O21       3.22687      .   S
    Zr18   O22       2.15966  1_545   S
    N2     O22       3.22689      .   S
    Zr23   O24       2.15968      .   S
    N6     O24       3.22692      .   S
    Zr23   O25       2.15967  1_544   S
    N7     O25       3.22691      .   S
    Zr23   O26       2.15966      .   S
    N3     O26       3.22690      .   S
    Zr23   O27       2.15968  1_544   S
    N2     O27       3.22692      .   S
    Zr28   O29       2.15967      .   S
    N0     O29       3.22693      .   S
    Zr28   O30       2.15964      .   S
    N1     O30       3.22688      .   S
    Zr28   O31       2.15967      .   S
    N5     O31       3.22692      .   S
    Zr28   O32       2.15963      .   S
    N4     O32       3.22690      .   S
    Zr33   O34       2.15965  1_545   S
    N0     O34       3.22688      .   S
    Zr33   O35       2.15965      .   S
    N6     O35       3.22690      .   S
    Zr33   O36       2.15965      .   S
    N5     O36       3.22688      .   S
    Zr33   O37       2.15964  1_545   S
    N2     O37       3.22689      .   S
