# CIF file generated by openbabel 2.4.90, see http://openbabel.sf.net
data_I
_chemical_name_common ''
_cell_length_a 11.6884
_cell_length_b 5.5643
_cell_length_c 22.8159
_cell_angle_alpha 90
_cell_angle_beta 100.691
_cell_angle_gamma 90
_space_group_name_H-M_alt 'P 1'
_space_group_name_Hall 'P 1'
loop_
    _symmetry_equiv_pos_as_xyz
    x,y,z
loop_
    _atom_site_label
    _atom_site_type_symbol
    _atom_site_fract_x
    _atom_site_fract_y
    _atom_site_fract_z
    _atom_site_occupancy
    Zr0     Zr   0.86258   0.75633   0.27818   1.000
    Zr1     Zr   0.63742   0.25633   0.22182   1.000
    Zr2     Zr   0.13742   0.24367   0.72182   1.000
    Zr3     Zr   0.36258   0.74367   0.77818   1.000
    N4      N    0.59295   0.40743   0.89140   1.000
    O5      O    0.46935   0.70670   0.84727   1.000
    N6      N    0.40705   0.59256   0.10860   1.000
    O7      O    0.53065   0.29330   0.15273   1.000
    N8      N    0.90704   0.90743   0.60860   1.000
    O9      O    0.03065   0.20670   0.65273   1.000
    N10     N    0.09295   0.09257   0.39140   1.000
    O11     O    0.96935   0.79330   0.34727   1.000
    C12     C    0.51620   0.72787   0.25366   1.000
    O13     O    0.54569   0.55898   0.24566   1.000
    O14     O    0.55298   0.90772   0.24344   1.000
    O15     O    0.44704   0.76575   0.27938   1.000
    C16     C    0.98380   0.22787   0.24634   1.000
    O17     O    0.05296   0.26575   0.22062   1.000
    O18     O    0.95431   0.05898   0.25435   1.000
    O19     O    0.94702   0.40772   0.25656   1.000
    C20     C    0.76597   0.27437   0.32724   1.000
    O21     O    0.78549   0.23601   0.37575   1.000
    O22     O    0.78870   0.09751   0.31043   1.000
    O23     O    0.73241   0.22251   0.29634   1.000
    O24     O    0.78958   0.44541   0.31513   1.000
    O25     O    0.73329   0.32041   0.30104   1.000
    C26     C    0.73403   0.77437   0.17276   1.000
    O27     O    0.76671   0.82041   0.19896   1.000
    O28     O    0.71042   0.94541   0.18487   1.000
    O29     O    0.76759   0.72251   0.20366   1.000
    O30     O    0.71130   0.59751   0.18957   1.000
    O31     O    0.71451   0.73601   0.12425   1.000
    C32     C    0.48380   0.27213   0.74634   1.000
    O33     O    0.45431   0.44102   0.75435   1.000
    O34     O    0.44702   0.09228   0.75656   1.000
    O35     O    0.55296   0.23425   0.72062   1.000
    C36     C    0.23403   0.72563   0.67276   1.000
    O37     O    0.21451   0.76399   0.62425   1.000
    O38     O    0.21042   0.55459   0.68487   1.000
    O39     O    0.26671   0.67959   0.69896   1.000
    O40     O    0.26759   0.77749   0.70366   1.000
    O41     O    0.21130   0.90249   0.68957   1.000
    C42     C    0.26597   0.22563   0.82724   1.000
    O43     O    0.28549   0.26399   0.87575   1.000
    O44     O    0.23241   0.27749   0.79634   1.000
    O45     O    0.28870   0.40249   0.81043   1.000
    O46     O    0.28958   0.05459   0.81513   1.000
    O47     O    0.23329   0.17959   0.80104   1.000
    C48     C    0.01620   0.77213   0.75366   1.000
    O49     O    0.94704   0.73425   0.77938   1.000
    O50     O    0.05298   0.59228   0.74344   1.000
    O51     O    0.04569   0.94102   0.74566   1.000
loop_
    _geom_bond_atom_site_label_1
    _geom_bond_atom_site_label_2
    _geom_bond_distance
    _geom_bond_site_symmetry_2
    _ccdc_geom_bond_type
    N4     O5        2.30961      .   S
    Zr3    O5        1.83159      .   S
    N6     O7        2.30961      .   S
    Zr1    O7        1.83159      .   S
    N8     O9        2.30961  1_665   S
    Zr2    O9        1.83159      .   S
    N10    O11       2.30961  1_445   S
    Zr0    O11       1.83159      .   S
    C12    O13       1.02898      .   S
    Zr1    O13       2.12072      .   S
    C12    O14       1.13043      .   S
    Zr1    O14       2.27173  1_545   S
    C12    O15       1.10373      .   S
    N10    O15       5.55809  1_545   S
    C16    O17       1.10373  1_655   S
    N6     O17       5.55809      .   S
    C16    O18       1.02898      .   S
    Zr0    O18       2.12072  1_565   S
    C16    O19       1.13043      .   S
    Zr0    O19       2.27173      .   S
    C20    O21       1.10865      .   S
    N8     O21       5.54845  1_565   S
    C20    O22       1.10632      .   S
    Zr0    O22       2.26426  1_565   S
    C20    O23       0.79458      .   S
    Zr1    O23       1.85980      .   S
    C20    O24       1.04232      .   S
    Zr0    O24       2.16771      .   S
    C20    O25       0.69570      .   S
    Zr1    O25       1.97446      .   S
    C26    O27       0.69570      .   S
    Zr0    O27       1.97446      .   S
    C26    O28       1.04232      .   S
    Zr1    O28       2.16771  1_545   S
    C26    O29       0.79458      .   S
    Zr0    O29       1.85980      .   S
    C26    O30       1.10632      .   S
    Zr1    O30       2.26426      .   S
    C26    O31       1.10865      .   S
    N4     O31       5.54845  1_556   S
    C32    O33       1.02898      .   S
    Zr3    O33       2.12072      .   S
    C32    O34       1.13043      .   S
    Zr3    O34       2.27173  1_565   S
    C32    O35       1.10373      .   S
    N8     O35       5.55809  1_565   S
    C36    O37       1.10865      .   S
    N10    O37       5.54845  1_545   S
    C36    O38       1.04232      .   S
    Zr2    O38       2.16771      .   S
    C36    O39       0.69570      .   S
    Zr3    O39       1.97446      .   S
    C36    O40       0.79458      .   S
    Zr3    O40       1.85980      .   S
    C36    O41       1.10632      .   S
    Zr2    O41       2.26426  1_545   S
    C42    O43       1.10865      .   S
    N6     O43       5.54845  1_554   S
    C42    O44       0.79458      .   S
    Zr2    O44       1.85980      .   S
    C42    O45       1.10632      .   S
    Zr3    O45       2.26426      .   S
    C42    O46       1.04232      .   S
    Zr3    O46       2.16771  1_565   S
    C42    O47       0.69570      .   S
    Zr2    O47       1.97446      .   S
    C48    O49       1.10373  1_455   S
    N4     O49       5.55809      .   S
    C48    O50       1.13043      .   S
    Zr2    O50       2.27173      .   S
    C48    O51       1.02898      .   S
    Zr2    O51       2.12072  1_545   S
