# CIF file generated by openbabel 2.4.90, see http://openbabel.sf.net
data_I
_chemical_name_common ''
_cell_length_a 71.5169
_cell_length_b 71.4927
_cell_length_c 71.6087
_cell_angle_alpha 89.8315
_cell_angle_beta 90.1248
_cell_angle_gamma 89.8689
_space_group_name_H-M_alt 'P 1'
_space_group_name_Hall 'P 1'
loop_
    _symmetry_equiv_pos_as_xyz
    x,y,z
loop_
    _atom_site_label
    _atom_site_type_symbol
    _atom_site_fract_x
    _atom_site_fract_y
    _atom_site_fract_z
    _atom_site_occupancy
    C0      C    0.35627   0.34348   0.30375   1.000
    C1      C    0.34397   0.35711   0.30457   1.000
    C2      C    0.34687   0.36883   0.29003   1.000
    C3      C    0.36186   0.36209   0.27955   1.000
    C4      C    0.36730   0.34592   0.28883   1.000
    C5      C    0.33876   0.38134   0.28741   1.000
    C6      C    0.37868   0.33665   0.28536   1.000
    C7      C    0.32576   0.35797   0.32496   1.000
    C8      C    0.35820   0.32388   0.32234   1.000
    C9      C    0.32584   0.32408   0.35797   1.000
    C10     C    0.30692   0.35716   0.34474   1.000
    C11     C    0.30716   0.34383   0.35741   1.000
    C12     C    0.29304   0.34648   0.36945   1.000
    C13     C    0.28321   0.36243   0.36424   1.000
    C14     C    0.29251   0.36881   0.34837   1.000
    C15     C    0.29036   0.33740   0.38121   1.000
    C16     C    0.28917   0.38103   0.34009   1.000
    C17     C    0.34586   0.30525   0.35609   1.000
    C18     C    0.35811   0.30518   0.34238   1.000
    C19     C    0.37023   0.29102   0.34504   1.000
    C20     C    0.36549   0.28165   0.36128   1.000
    C21     C    0.34989   0.29108   0.36789   1.000
    C22     C    0.38180   0.28794   0.33589   1.000
    C23     C    0.34219   0.28808   0.38050   1.000
    C24     C    0.33013   0.32448   0.32959   1.000
    C25     C    0.34643   0.33873   0.34425   1.000
    C26     C    0.35605   0.84478   0.80621   1.000
    C27     C    0.34232   0.85701   0.80578   1.000
    C28     C    0.34538   0.86942   0.79200   1.000
    C29     C    0.36193   0.86476   0.78314   1.000
    C30     C    0.36831   0.84896   0.79257   1.000
    C31     C    0.33621   0.88099   0.78872   1.000
    C32     C    0.38102   0.84122   0.78994   1.000
    C33     C    0.32215   0.85570   0.82365   1.000
    C34     C    0.35713   0.82471   0.82492   1.000
    C35     C    0.32168   0.82459   0.85831   1.000
    C36     C    0.30311   0.85678   0.84276   1.000
    C37     C    0.30294   0.84441   0.85635   1.000
    C38     C    0.28860   0.84824   0.86787   1.000
    C39     C    0.27928   0.86393   0.86116   1.000
    C40     C    0.28898   0.86895   0.84519   1.000
    C41     C    0.28540   0.84026   0.88029   1.000
    C42     C    0.28606   0.88062   0.83601   1.000
    C43     C    0.34195   0.80585   0.85773   1.000
    C44     C    0.35539   0.80580   0.84512   1.000
    C45     C    0.36694   0.79128   0.84863   1.000
    C46     C    0.36048   0.78170   0.86421   1.000
    C47     C    0.34460   0.79142   0.86954   1.000
    C48     C    0.37915   0.78796   0.84042   1.000
    C49     C    0.33560   0.78830   0.88122   1.000
    C50     C    0.32894   0.82300   0.83041   1.000
    C51     C    0.34281   0.83932   0.84515   1.000
    C52     C    0.85715   0.34606   0.80482   1.000
    C53     C    0.84411   0.35901   0.80503   1.000
    C54     C    0.84722   0.37126   0.79112   1.000
    C55     C    0.86313   0.36582   0.78146   1.000
    C56     C    0.86904   0.34965   0.79067   1.000
    C57     C    0.83849   0.38327   0.78837   1.000
    C58     C    0.88108   0.34112   0.78744   1.000
    C59     C    0.82435   0.35915   0.82355   1.000
    C60     C    0.85774   0.32582   0.82325   1.000
    C61     C    0.82293   0.32620   0.85700   1.000
    C62     C    0.80528   0.35935   0.84279   1.000
    C63     C    0.80474   0.34645   0.85585   1.000
    C64     C    0.79041   0.35011   0.86745   1.000
    C65     C    0.78144   0.36624   0.86135   1.000
    C66     C    0.79135   0.37168   0.84565   1.000
    C67     C    0.78688   0.34165   0.87946   1.000
    C68     C    0.78876   0.38381   0.83701   1.000
    C69     C    0.84252   0.30687   0.85589   1.000
    C70     C    0.85579   0.30663   0.84313   1.000
    C71     C    0.86702   0.29177   0.84635   1.000
    C72     C    0.86049   0.28218   0.86191   1.000
    C73     C    0.84493   0.29225   0.86751   1.000
    C74     C    0.87905   0.28823   0.83798   1.000
    C75     C    0.83605   0.28930   0.87933   1.000
    C76     C    0.82950   0.32578   0.82879   1.000
    C77     C    0.84449   0.34069   0.84404   1.000
    C78     C    0.85675   0.84623   0.30545   1.000
    C79     C    0.84370   0.85916   0.30580   1.000
    C80     C    0.84661   0.87142   0.29189   1.000
    C81     C    0.86243   0.86610   0.28207   1.000
    C82     C    0.86850   0.84991   0.29117   1.000
    C83     C    0.83778   0.88338   0.28926   1.000
    C84     C    0.88062   0.84150   0.28787   1.000
    C85     C    0.82402   0.85910   0.32435   1.000
    C86     C    0.85735   0.82586   0.32389   1.000
    C87     C    0.82190   0.82579   0.35714   1.000
    C88     C    0.80429   0.85891   0.34287   1.000
    C89     C    0.80346   0.84582   0.35572   1.000
    C90     C    0.78857   0.84906   0.36676   1.000
    C91     C    0.77954   0.86507   0.36044   1.000
    C92     C    0.78999   0.87089   0.34525   1.000
    C93     C    0.78471   0.84041   0.37853   1.000
    C94     C    0.78755   0.88308   0.33667   1.000
    C95     C    0.84178   0.80673   0.35635   1.000
    C96     C    0.85529   0.80660   0.34381   1.000
    C97     C    0.86659   0.79183   0.34729   1.000
    C98     C    0.85983   0.78220   0.36274   1.000
    C99     C    0.84411   0.79217   0.36804   1.000
    C100    C    0.87881   0.78834   0.33915   1.000
    C101    C    0.83507   0.78919   0.37972   1.000
    C102    C    0.82907   0.82571   0.32905   1.000
    C103    C    0.84387   0.84026   0.34479   1.000
    C104    C    0.64188   0.65791   0.30517   1.000
    C105    C    0.65411   0.64420   0.30548   1.000
    C106    C    0.65031   0.63237   0.29138   1.000
    C107    C    0.63478   0.63904   0.28175   1.000
    C108    C    0.62992   0.65534   0.29093   1.000
    C109    C    0.65800   0.61966   0.28862   1.000
    C110    C    0.61832   0.66453   0.28780   1.000
    C111    C    0.67318   0.64301   0.32485   1.000
    C112    C    0.64129   0.67731   0.32397   1.000
    C113    C    0.67494   0.67549   0.35888   1.000
    C114    C    0.69246   0.64244   0.34397   1.000
    C115    C    0.69312   0.65506   0.35727   1.000
    C116    C    0.70762   0.65112   0.36867   1.000
    C117    C    0.71656   0.63515   0.36219   1.000
    C118    C    0.70648   0.63011   0.34645   1.000
    C119    C    0.71124   0.65924   0.38086   1.000
    C120    C    0.70908   0.61831   0.33744   1.000
    C121    C    0.65522   0.69497   0.35773   1.000
    C122    C    0.64273   0.69566   0.34416   1.000
    C123    C    0.63090   0.70991   0.34725   1.000
    C124    C    0.63597   0.71872   0.36364   1.000
    C125    C    0.65157   0.70890   0.36988   1.000
    C126    C    0.61924   0.71343   0.33830   1.000
    C127    C    0.65937   0.71139   0.38257   1.000
    C128    C    0.66962   0.67634   0.33075   1.000
    C129    C    0.65363   0.66181   0.34538   1.000
    C130    C    0.64083   0.15515   0.80714   1.000
    C131    C    0.65506   0.14366   0.80554   1.000
    C132    C    0.65171   0.13196   0.79114   1.000
    C133    C    0.63439   0.13649   0.78330   1.000
    C134    C    0.62806   0.15132   0.79399   1.000
    C135    C    0.66119   0.12103   0.78676   1.000
    C136    C    0.61517   0.15904   0.79238   1.000
    C137    C    0.67632   0.14525   0.82275   1.000
    C138    C    0.63963   0.17480   0.82554   1.000
    C139    C    0.67807   0.18063   0.85406   1.000
    C140    C    0.69498   0.14594   0.84276   1.000
    C141    C    0.69548   0.15978   0.85479   1.000
    C142    C    0.70969   0.15706   0.86679   1.000
    C143    C    0.71873   0.14053   0.86223   1.000
    C144    C    0.70894   0.13386   0.84683   1.000
    C145    C    0.71311   0.16656   0.87798   1.000
    C146    C    0.71172   0.12118   0.83913   1.000
    C147    C    0.65571   0.19667   0.85547   1.000
    C148    C    0.64093   0.19407   0.84480   1.000
    C149    C    0.62772   0.20666   0.84928   1.000
    C150    C    0.63438   0.21777   0.86358   1.000
    C151    C    0.65225   0.21102   0.86715   1.000
    C152    C    0.61428   0.20773   0.84247   1.000
    C153    C    0.66191   0.21592   0.87768   1.000
    C154    C    0.66801   0.17836   0.82681   1.000
    C155    C    0.65773   0.16273   0.84510   1.000
    C156    C    0.14428   0.65580   0.80429   1.000
    C157    C    0.15746   0.64298   0.80449   1.000
    C158    C    0.15491   0.63128   0.79007   1.000
    C159    C    0.13925   0.63694   0.78018   1.000
    C160    C    0.13278   0.65258   0.78970   1.000
    C161    C    0.16369   0.61932   0.78716   1.000
    C162    C    0.12068   0.66103   0.78629   1.000
    C163    C    0.17684   0.64261   0.82340   1.000
    C164    C    0.14325   0.67552   0.82321   1.000
    C165    C    0.17814   0.67469   0.85720   1.000
    C166    C    0.19622   0.64218   0.84235   1.000
    C167    C    0.19669   0.65480   0.85561   1.000
    C168    C    0.21132   0.65124   0.86694   1.000
    C169    C    0.22061   0.63552   0.86037   1.000
    C170    C    0.21058   0.63022   0.84469   1.000
    C171    C    0.21475   0.65943   0.87913   1.000
    C172    C    0.21342   0.61845   0.83569   1.000
    C173    C    0.15820   0.69368   0.85644   1.000
    C174    C    0.14490   0.69411   0.84363   1.000
    C175    C    0.13351   0.70875   0.84714   1.000
    C176    C    0.13999   0.71799   0.86290   1.000
    C177    C    0.15564   0.70794   0.86837   1.000
    C178    C    0.12145   0.71245   0.83878   1.000
    C179    C    0.16446   0.71066   0.88031   1.000
    C180    C    0.17147   0.67576   0.82897   1.000
    C181    C    0.15655   0.66054   0.84396   1.000
    C182    C    0.13827   0.15313   0.30713   1.000
    C183    C    0.15350   0.14365   0.30322   1.000
    C184    C    0.15077   0.13407   0.28728   1.000
    C185    C    0.13281   0.13782   0.28086   1.000
    C186    C    0.12532   0.14997   0.29390   1.000
    C187    C    0.16104   0.12497   0.28094   1.000
    C188    C    0.11137   0.15582   0.29404   1.000
    C189    C    0.17496   0.14409   0.31995   1.000
    C190    C    0.13598   0.16806   0.32957   1.000
    C191    C    0.17751   0.17754   0.35270   1.000
    C192    C    0.19336   0.14294   0.33995   1.000
    C193    C    0.19456   0.15609   0.35267   1.000
    C194    C    0.20876   0.15197   0.36438   1.000
    C195    C    0.21686   0.13520   0.35877   1.000
    C196    C    0.20662   0.12996   0.34317   1.000
    C197    C    0.21279   0.16058   0.37609   1.000
    C198    C    0.20857   0.11764   0.33470   1.000
    C199    C    0.15462   0.19269   0.35598   1.000
    C200    C    0.13875   0.18853   0.34758   1.000
    C201    C    0.12570   0.20118   0.35231   1.000
    C202    C    0.13359   0.21405   0.36439   1.000
    C203    C    0.15203   0.20814   0.36643   1.000
    C204    C    0.11158   0.20114   0.34691   1.000
    C205    C    0.16284   0.21462   0.37474   1.000
    C206    C    0.16340   0.17553   0.32695   1.000
    C207    C    0.15833   0.15841   0.34600   1.000
    C208    C    0.64173   0.34241   0.69350   1.000
    C209    C    0.65434   0.35576   0.69355   1.000
    C210    C    0.65040   0.36775   0.70755   1.000
    C211    C    0.63444   0.36155   0.71674   1.000
    C212    C    0.62945   0.34540   0.70735   1.000
    C213    C    0.65844   0.38013   0.71069   1.000
    C214    C    0.61774   0.33637   0.71033   1.000
    C215    C    0.67451   0.35608   0.67508   1.000
    C216    C    0.64164   0.32215   0.67545   1.000
    C217    C    0.67628   0.32274   0.64200   1.000
    C218    C    0.69349   0.35648   0.65535   1.000
    C219    C    0.69397   0.34318   0.64273   1.000
    C220    C    0.70787   0.34654   0.63065   1.000
    C221    C    0.71674   0.36292   0.63572   1.000
    C222    C    0.70725   0.36885   0.65159   1.000
    C223    C    0.71121   0.33763   0.61897   1.000
    C224    C    0.70995   0.38136   0.65959   1.000
    C225    C    0.65722   0.30311   0.64331   1.000
    C226    C    0.64389   0.30285   0.65598   1.000
    C227    C    0.63272   0.28804   0.65275   1.000
    C228    C    0.63934   0.27853   0.63724   1.000
    C229    C    0.65491   0.28855   0.63170   1.000
    C230    C    0.62057   0.28458   0.66099   1.000
    C231    C    0.66373   0.28572   0.61982   1.000
    C232    C    0.66989   0.32261   0.67025   1.000
    C233    C    0.65468   0.33731   0.65476   1.000
    C234    C    0.64448   0.84553   0.19711   1.000
    C235    C    0.65791   0.85800   0.19663   1.000
    C236    C    0.65575   0.86991   0.21095   1.000
    C237    C    0.64012   0.86470   0.22107   1.000
    C238    C    0.63332   0.84908   0.21182   1.000
    C239    C    0.66476   0.88170   0.21359   1.000
    C240    C    0.62113   0.84094   0.21540   1.000
    C241    C    0.67665   0.85802   0.17712   1.000
    C242    C    0.64236   0.82605   0.17828   1.000
    C243    C    0.67516   0.82621   0.14255   1.000
    C244    C    0.69462   0.85817   0.15691   1.000
    C245    C    0.69410   0.84588   0.14332   1.000
    C246    C    0.70791   0.84976   0.13111   1.000
    C247    C    0.71754   0.86540   0.13738   1.000
    C248    C    0.70867   0.87022   0.15383   1.000
    C249    C    0.71052   0.84195   0.11849   1.000
    C250    C    0.71207   0.88175   0.16290   1.000
    C251    C    0.65489   0.80749   0.14439   1.000
    C252    C    0.64250   0.80748   0.15802   1.000
    C253    C    0.63046   0.79330   0.15536   1.000
    C254    C    0.63537   0.78383   0.13925   1.000
    C255    C    0.65099   0.79327   0.13269   1.000
    C256    C    0.61890   0.79018   0.16452   1.000
    C257    C    0.65885   0.79016   0.12022   1.000
    C258    C    0.67037   0.82510   0.17091   1.000
    C259    C    0.65506   0.84108   0.15695   1.000
    C260    C    0.14330   0.34329   0.19492   1.000
    C261    C    0.15618   0.35636   0.19461   1.000
    C262    C    0.15355   0.36778   0.20939   1.000
    C263    C    0.13820   0.36140   0.21946   1.000
    C264    C    0.13214   0.34586   0.20974   1.000
    C265    C    0.16217   0.37974   0.21262   1.000
    C266    C    0.12026   0.33715   0.21299   1.000
    C267    C    0.17489   0.35683   0.17466   1.000
    C268    C    0.14142   0.32390   0.17613   1.000
    C269    C    0.17464   0.32359   0.14119   1.000
    C270    C    0.19401   0.35602   0.15514   1.000
    C271    C    0.19374   0.34300   0.14222   1.000
    C272    C    0.20823   0.34557   0.13055   1.000
    C273    C    0.21829   0.36108   0.13635   1.000
    C274    C    0.20878   0.36734   0.15206   1.000
    C275    C    0.21108   0.33682   0.11863   1.000
    C276    C    0.21236   0.37921   0.16065   1.000
    C277    C    0.15416   0.30513   0.14258   1.000
    C278    C    0.14158   0.30532   0.15600   1.000
    C279    C    0.12937   0.29131   0.15322   1.000
    C280    C    0.13439   0.28172   0.13722   1.000
    C281    C    0.15025   0.29091   0.13087   1.000
    C282    C    0.11765   0.28837   0.16222   1.000
    C283    C    0.15826   0.28764   0.11853   1.000
    C284    C    0.16965   0.32357   0.16945   1.000
    C285    C    0.15417   0.33861   0.15462   1.000
    C286    C    0.14456   0.84429   0.69434   1.000
    C287    C    0.15762   0.85717   0.69351   1.000
    C288    C    0.15530   0.86920   0.70773   1.000
    C289    C    0.13994   0.86365   0.71813   1.000
    C290    C    0.13349   0.84773   0.70914   1.000
    C291    C    0.16413   0.88117   0.71024   1.000
    C292    C    0.12167   0.83920   0.71304   1.000
    C293    C    0.17648   0.85716   0.67396   1.000
    C294    C    0.14287   0.82401   0.67616   1.000
    C295    C    0.17681   0.82324   0.64178   1.000
    C296    C    0.19575   0.85601   0.65479   1.000
    C297    C    0.19561   0.84264   0.64228   1.000
    C298    C    0.21014   0.84485   0.63066   1.000
    C299    C    0.22011   0.86048   0.63610   1.000
    C300    C    0.21052   0.86725   0.65152   1.000
    C301    C    0.21308   0.83576   0.61901   1.000
    C302    C    0.21405   0.87937   0.65979   1.000
    C303    C    0.15679   0.80470   0.64334   1.000
    C304    C    0.14378   0.80475   0.65636   1.000
    C305    C    0.13232   0.79005   0.65350   1.000
    C306    C    0.13854   0.78029   0.63794   1.000
    C307    C    0.15401   0.79011   0.63192   1.000
    C308    C    0.12047   0.78659   0.66218   1.000
    C309    C    0.16261   0.78696   0.61996   1.000
    C310    C    0.17092   0.82377   0.67030   1.000
    C311    C    0.15555   0.83829   0.65484   1.000
    C312    C    0.35577   0.65388   0.69504   1.000
    C313    C    0.34106   0.64294   0.69533   1.000
    C314    C    0.34277   0.63073   0.70959   1.000
    C315    C    0.35947   0.63426   0.71882   1.000
    C316    C    0.36732   0.64908   0.70911   1.000
    C317    C    0.33255   0.62018   0.71302   1.000
    C318    C    0.38041   0.65599   0.71204   1.000
    C319    C    0.32106   0.64553   0.67707   1.000
    C320    C    0.35858   0.67404   0.67704   1.000
    C321    C    0.32201   0.68092   0.64595   1.000
    C322    C    0.30413   0.64647   0.65580   1.000
    C323    C    0.30447   0.66033   0.64375   1.000
    C324    C    0.29089   0.65784   0.63098   1.000
    C325    C    0.28147   0.64141   0.63517   1.000
    C326    C    0.29035   0.63459   0.65104   1.000
    C327    C    0.28804   0.66745   0.61965   1.000
    C328    C    0.28703   0.62199   0.65870   1.000
    C329    C    0.34453   0.69668   0.64634   1.000
    C330    C    0.35863   0.69381   0.65790   1.000
    C331    C    0.37200   0.70657   0.65448   1.000
    C332    C    0.36610   0.71807   0.64001   1.000
    C333    C    0.34859   0.71131   0.63519   1.000
    C334    C    0.38510   0.70736   0.66197   1.000
    C335    C    0.33942   0.71660   0.62438   1.000
    C336    C    0.33056   0.67839   0.67379   1.000
    C337    C    0.34169   0.66264   0.65625   1.000
    C338    C    0.35702   0.15722   0.19207   1.000
    C339    C    0.34455   0.14375   0.19211   1.000
    C340    C    0.34845   0.13192   0.20632   1.000
    C341    C    0.36426   0.13833   0.21564   1.000
    C342    C    0.36919   0.15447   0.20613   1.000
    C343    C    0.34051   0.11947   0.20949   1.000
    C344    C    0.38081   0.16361   0.20911   1.000
    C345    C    0.32472   0.14302   0.17326   1.000
    C346    C    0.35715   0.17725   0.17366   1.000
    C347    C    0.32180   0.17702   0.14075   1.000
    C348    C    0.30442   0.14361   0.15488   1.000
    C349    C    0.30358   0.15703   0.14233   1.000
    C350    C    0.28863   0.15440   0.13131   1.000
    C351    C    0.27937   0.13846   0.13714   1.000
    C352    C    0.28986   0.13191   0.15218   1.000
    C353    C    0.28495   0.16340   0.11973   1.000
    C354    C    0.28707   0.11964   0.16056   1.000
    C355    C    0.34144   0.19615   0.14131   1.000
    C356    C    0.35492   0.19632   0.15388   1.000
    C357    C    0.36618   0.21102   0.15048   1.000
    C358    C    0.35946   0.22059   0.13499   1.000
    C359    C    0.34374   0.21069   0.12959   1.000
    C360    C    0.37837   0.21445   0.15870   1.000
    C361    C    0.33468   0.21372   0.11788   1.000
    C362    C    0.32874   0.17658   0.16885   1.000
    C363    C    0.34384   0.16252   0.15285   1.000
    C364    C    0.85588   0.65487   0.19673   1.000
    C365    C    0.84064   0.64480   0.19837   1.000
    C366    C    0.84256   0.63293   0.21284   1.000
    C367    C    0.86002   0.63569   0.22082   1.000
    C368    C    0.86806   0.64979   0.21018   1.000
    C369    C    0.83200   0.62302   0.21714   1.000
    C370    C    0.88179   0.65583   0.21195   1.000
    C371    C    0.82003   0.64757   0.18108   1.000
    C372    C    0.85857   0.67394   0.17743   1.000
    C373    C    0.82222   0.67780   0.14534   1.000
    C374    C    0.80420   0.64485   0.15931   1.000
    C375    C    0.80500   0.65663   0.14523   1.000
    C376    C    0.79231   0.65156   0.13227   1.000
    C377    C    0.78317   0.63561   0.13855   1.000
    C378    C    0.79116   0.63181   0.15580   1.000
    C379    C    0.79002   0.65891   0.11924   1.000
    C380    C    0.78764   0.62057   0.16529   1.000
    C381    C    0.84449   0.69410   0.14489   1.000
    C382    C    0.85837   0.69244   0.15696   1.000
    C383    C    0.87133   0.70550   0.15317   1.000
    C384    C    0.86545   0.71596   0.13792   1.000
    C385    C    0.84833   0.70825   0.13305   1.000
    C386    C    0.88401   0.70737   0.16114   1.000
    C387    C    0.83924   0.71261   0.12178   1.000
    C388    C    0.83069   0.67926   0.17316   1.000
    C389    C    0.84126   0.66079   0.15819   1.000
    C390    C    0.85924   0.15555   0.68995   1.000
    C391    C    0.84498   0.14425   0.69238   1.000
    C392    C    0.84788   0.13403   0.70797   1.000
    C393    C    0.86492   0.13923   0.71572   1.000
    C394    C    0.87171   0.15289   0.70377   1.000
    C395    C    0.83825   0.12370   0.71331   1.000
    C396    C    0.88479   0.16035   0.70489   1.000
    C397    C    0.82424   0.14396   0.67460   1.000
    C398    C    0.86080   0.17274   0.66888   1.000
    C399    C    0.81788   0.18251   0.64868   1.000
    C400    C    0.80427   0.14546   0.65599   1.000
    C401    C    0.80184   0.16078   0.64608   1.000
    C402    C    0.78715   0.15858   0.63459   1.000
    C403    C    0.77992   0.14080   0.63721   1.000
    C404    C    0.79116   0.13288   0.65101   1.000
    C405    C    0.78219   0.16925   0.62506   1.000
    C406    C    0.79000   0.11899   0.65689   1.000
    C407    C    0.83978   0.19878   0.64580   1.000
    C408    C    0.85634   0.19472   0.65288   1.000
    C409    C    0.86863   0.20793   0.64756   1.000
    C410    C    0.85936   0.22090   0.63644   1.000
    C411    C    0.84107   0.21460   0.63568   1.000
    C412    C    0.88327   0.20792   0.65134   1.000
    C413    C    0.82953   0.22085   0.62813   1.000
    C414    C    0.83331   0.17688   0.67309   1.000
    C415    C    0.83908   0.16392   0.65125   1.000
    C416    C    0.34601   0.35548   0.69669   1.000
    C417    C    0.35907   0.34257   0.69585   1.000
    C418    C    0.37113   0.34501   0.71006   1.000
    C419    C    0.36535   0.36026   0.72047   1.000
    C420    C    0.34932   0.36657   0.71150   1.000
    C421    C    0.38325   0.33635   0.71255   1.000
    C422    C    0.34066   0.37832   0.71538   1.000
    C423    C    0.35909   0.32402   0.67617   1.000
    C424    C    0.32592   0.35702   0.67839   1.000
    C425    C    0.32570   0.32374   0.64307   1.000
    C426    C    0.35889   0.30539   0.65656   1.000
    C427    C    0.34589   0.30524   0.64358   1.000
    C428    C    0.34931   0.29100   0.63176   1.000
    C429    C    0.36541   0.28168   0.63765   1.000
    C430    C    0.37098   0.29134   0.65349   1.000
    C431    C    0.34072   0.28780   0.61977   1.000
    C432    C    0.38297   0.28850   0.66220   1.000
    C433    C    0.30663   0.34372   0.64515   1.000
    C434    C    0.30682   0.35630   0.65860   1.000
    C435    C    0.29227   0.36802   0.65627   1.000
    C436    C    0.28230   0.36267   0.64059   1.000
    C437    C    0.29186   0.34717   0.63389   1.000
    C438    C    0.28926   0.37969   0.66532   1.000
    C439    C    0.28831   0.33893   0.62178   1.000
    C440    C    0.32569   0.32883   0.67140   1.000
    C441    C    0.34021   0.34457   0.65653   1.000
    C442    C    0.34291   0.85939   0.19407   1.000
    C443    C    0.35651   0.84703   0.19471   1.000
    C444    C    0.36799   0.85121   0.20902   1.000
    C445    C    0.36127   0.86713   0.21792   1.000
    C446    C    0.34523   0.87183   0.20793   1.000
    C447    C    0.38036   0.84326   0.21256   1.000
    C448    C    0.33593   0.88349   0.21034   1.000
    C449    C    0.35798   0.82696   0.17645   1.000
    C450    C    0.32335   0.85874   0.17508   1.000
    C451    C    0.32576   0.82295   0.14255   1.000
    C452    C    0.35913   0.80677   0.15830   1.000
    C453    C    0.34651   0.80539   0.14503   1.000
    C454    C    0.35067   0.79067   0.13414   1.000
    C455    C    0.36688   0.78222   0.14086   1.000
    C456    C    0.37177   0.79292   0.15631   1.000
    C457    C    0.34245   0.78661   0.12216   1.000
    C458    C    0.38373   0.79098   0.16535   1.000
    C459    C    0.30586   0.84209   0.14241   1.000
    C460    C    0.30493   0.85568   0.15479   1.000
    C461    C    0.28999   0.86651   0.15089   1.000
    C462    C    0.28101   0.85944   0.13526   1.000
    C463    C    0.29153   0.84392   0.13031   1.000
    C464    C    0.28597   0.87866   0.15887   1.000
    C465    C    0.28908   0.83473   0.11861   1.000
    C466    C    0.32460   0.83028   0.17041   1.000
    C467    C    0.33903   0.84544   0.15486   1.000
    C468    C    0.84503   0.35825   0.19595   1.000
    C469    C    0.85794   0.34521   0.19667   1.000
    C470    C    0.86966   0.34898   0.21096   1.000
    C471    C    0.86372   0.36538   0.21965   1.000
    C472    C    0.84798   0.37071   0.20961   1.000
    C473    C    0.88168   0.34052   0.21456   1.000
    C474    C    0.83931   0.38288   0.21179   1.000
    C475    C    0.85823   0.32495   0.17841   1.000
    C476    C    0.82573   0.35889   0.17702   1.000
    C477    C    0.82651   0.32455   0.14316   1.000
    C478    C    0.85877   0.30604   0.15883   1.000
    C479    C    0.84644   0.30594   0.14519   1.000
    C480    C    0.85030   0.29165   0.13360   1.000
    C481    C    0.86594   0.28220   0.14026   1.000
    C482    C    0.87089   0.29181   0.15634   1.000
    C483    C    0.84233   0.28852   0.12117   1.000
    C484    C    0.88255   0.28883   0.16548   1.000
    C485    C    0.80750   0.34469   0.14373   1.000
    C486    C    0.80726   0.35756   0.15688   1.000
    C487    C    0.79316   0.36955   0.15357   1.000
    C488    C    0.78398   0.36418   0.13747   1.000
    C489    C    0.79343   0.34825   0.13162   1.000
    C490    C    0.78991   0.38142   0.16226   1.000
    C491    C    0.79053   0.34008   0.11928   1.000
    C492    C    0.82530   0.33035   0.17110   1.000
    C493    C    0.84130   0.34507   0.15662   1.000
    C494    C    0.84335   0.85759   0.69246   1.000
    C495    C    0.85611   0.84435   0.69332   1.000
    C496    C    0.86786   0.84811   0.70759   1.000
    C497    C    0.86212   0.86460   0.71610   1.000
    C498    C    0.84648   0.87011   0.70604   1.000
    C499    C    0.87976   0.83954   0.71137   1.000
    C500    C    0.83795   0.88237   0.70830   1.000
    C501    C    0.85603   0.82366   0.67554   1.000
    C502    C    0.82373   0.85819   0.67369   1.000
    C503    C    0.82386   0.82270   0.64116   1.000
    C504    C    0.85614   0.80413   0.65647   1.000
    C505    C    0.84337   0.80404   0.64326   1.000
    C506    C    0.84622   0.78938   0.63198   1.000
    C507    C    0.86161   0.77951   0.63835   1.000
    C508    C    0.86765   0.78935   0.65395   1.000
    C509    C    0.83777   0.78630   0.61986   1.000
    C510    C    0.87940   0.78592   0.66286   1.000
    C511    C    0.80518   0.84276   0.64118   1.000
    C512    C    0.80506   0.85635   0.65357   1.000
    C513    C    0.79083   0.86808   0.64961   1.000
    C514    C    0.78153   0.86155   0.63392   1.000
    C515    C    0.79106   0.84544   0.62904   1.000
    C516    C    0.78764   0.88055   0.65747   1.000
    C517    C    0.78810   0.83636   0.61739   1.000
    C518    C    0.82304   0.82978   0.66920   1.000
    C519    C    0.83896   0.84386   0.65397   1.000
    C520    C    0.65741   0.64502   0.69539   1.000
    C521    C    0.64437   0.65790   0.69384   1.000
    C522    C    0.63171   0.65542   0.70752   1.000
    C523    C    0.63705   0.64013   0.71827   1.000
    C524    C    0.65351   0.63395   0.71009   1.000
    C525    C    0.61935   0.66394   0.70926   1.000
    C526    C    0.66187   0.62203   0.71421   1.000
    C527    C    0.64460   0.67626   0.67372   1.000
    C528    C    0.67776   0.64275   0.67752   1.000
    C529    C    0.67684   0.67296   0.63967   1.000
    C530    C    0.64456   0.69309   0.65228   1.000
    C531    C    0.65701   0.69153   0.63893   1.000
    C532    C    0.65386   0.70479   0.62595   1.000
    C533    C    0.63854   0.71535   0.63137   1.000
    C534    C    0.63300   0.70744   0.64819   1.000
    C535    C    0.66225   0.70664   0.61356   1.000
    C536    C    0.62152   0.71186   0.65692   1.000
    C537    C    0.69594   0.65342   0.64287   1.000
    C538    C    0.69694   0.64257   0.65779   1.000
    C539    C    0.71212   0.63146   0.65632   1.000
    C540    C    0.72087   0.63535   0.63955   1.000
    C541    C    0.71023   0.64930   0.63139   1.000
    C542    C    0.71632   0.62100   0.66646   1.000
    C543    C    0.71297   0.65615   0.61819   1.000
    C544    C    0.67779   0.67022   0.66844   1.000
    C545    C    0.66235   0.65354   0.65559   1.000
    C546    C    0.65821   0.14180   0.19648   1.000
    C547    C    0.64514   0.15469   0.19691   1.000
    C548    C    0.63381   0.15134   0.21155   1.000
    C549    C    0.64016   0.13542   0.22086   1.000
    C550    C    0.65575   0.12985   0.21076   1.000
    C551    C    0.62183   0.15984   0.21504   1.000
    C552    C    0.66462   0.11789   0.21335   1.000
    C553    C    0.64428   0.17437   0.17806   1.000
    C554    C    0.67714   0.14096   0.17714   1.000
    C555    C    0.67546   0.17512   0.14271   1.000
    C556    C    0.64332   0.19339   0.15860   1.000
    C557    C    0.65546   0.19372   0.14485   1.000
    C558    C    0.65147   0.20830   0.13354   1.000
    C559    C    0.63597   0.21766   0.14057   1.000
    C560    C    0.63124   0.20769   0.15649   1.000
    C561    C    0.65935   0.21183   0.12116   1.000
    C562    C    0.61978   0.21054   0.16585   1.000
    C563    C    0.69456   0.15498   0.14324   1.000
    C564    C    0.69513   0.14219   0.15654   1.000
    C565    C    0.70928   0.13029   0.15318   1.000
    C566    C    0.71817   0.13565   0.13690   1.000
    C567    C    0.70846   0.15146   0.13099   1.000
    C568    C    0.71276   0.11849   0.16196   1.000
    C569    C    0.71111   0.15964   0.11857   1.000
    C570    C    0.67720   0.16937   0.17073   1.000
    C571    C    0.66137   0.15428   0.15654   1.000
    C572    C    0.15571   0.64123   0.19461   1.000
    C573    C    0.14308   0.65458   0.19482   1.000
    C574    C    0.13104   0.65122   0.20894   1.000
    C575    C    0.13648   0.63480   0.21805   1.000
    C576    C    0.15225   0.62901   0.20841   1.000
    C577    C    0.11920   0.66002   0.21221   1.000
    C578    C    0.16070   0.61675   0.21103   1.000
    C579    C    0.14386   0.67482   0.17634   1.000
    C580    C    0.17570   0.64005   0.17645   1.000
    C581    C    0.17700   0.67464   0.14278   1.000
    C582    C    0.14447   0.69387   0.15667   1.000
    C583    C    0.15755   0.69365   0.14382   1.000
    C584    C    0.15493   0.70806   0.13203   1.000
    C585    C    0.13926   0.71807   0.13760   1.000
    C586    C    0.13299   0.70853   0.15339   1.000
    C587    C    0.16383   0.71082   0.12019   1.000
    C588    C    0.12098   0.71191   0.16187   1.000
    C589    C    0.19545   0.65417   0.14406   1.000
    C590    C    0.19491   0.64103   0.15698   1.000
    C591    C    0.20895   0.62886   0.15407   1.000
    C592    C    0.21890   0.63452   0.13849   1.000
    C593    C    0.20991   0.65069   0.13254   1.000
    C594    C    0.21157   0.61665   0.16259   1.000
    C595    C    0.21346   0.65921   0.12059   1.000
    C596    C    0.17696   0.66850   0.17088   1.000
    C597    C    0.16128   0.65423   0.15560   1.000
    C598    C    0.15416   0.14460   0.69585   1.000
    C599    C    0.14184   0.15821   0.69486   1.000
    C600    C    0.12952   0.15630   0.70896   1.000
    C601    C    0.13442   0.14060   0.71945   1.000
    C602    C    0.15021   0.13363   0.71057   1.000
    C603    C    0.11787   0.16564   0.71130   1.000
    C604    C    0.15822   0.12136   0.71427   1.000
    C605    C    0.14306   0.17697   0.67506   1.000
    C606    C    0.17420   0.14165   0.67783   1.000
    C607    C    0.17619   0.17396   0.64184   1.000
    C608    C    0.14411   0.19466   0.65430   1.000
    C609    C    0.15717   0.19340   0.64150   1.000
    C610    C    0.15474   0.20708   0.62881   1.000
    C611    C    0.13919   0.21762   0.63376   1.000
    C612    C    0.13283   0.20921   0.65011   1.000
    C613    C    0.16362   0.20895   0.61679   1.000
    C614    C    0.12088   0.21327   0.65838   1.000
    C615    C    0.19420   0.15327   0.64455   1.000
    C616    C    0.19344   0.14095   0.65826   1.000
    C617    C    0.20733   0.12841   0.65608   1.000
    C618    C    0.21735   0.13298   0.64017   1.000
    C619    C    0.20858   0.14889   0.63328   1.000
    C620    C    0.20982   0.11671   0.66533   1.000
    C621    C    0.21226   0.15665   0.62087   1.000
    C622    C    0.17602   0.16952   0.67036   1.000
    C623    C    0.16015   0.15457   0.65603   1.000
    C624    C    0.34312   0.64361   0.30648   1.000
    C625    C    0.35618   0.65651   0.30630   1.000
    C626    C    0.36773   0.65323   0.29179   1.000
    C627    C    0.36152   0.63744   0.28236   1.000
    C628    C    0.34587   0.63178   0.29221   1.000
    C629    C    0.37966   0.66179   0.28828   1.000
    C630    C    0.33706   0.61988   0.28931   1.000
    C631    C    0.35659   0.67637   0.32507   1.000
    C632    C    0.32318   0.64291   0.32489   1.000
    C633    C    0.32405   0.67694   0.35892   1.000
    C634    C    0.35719   0.69490   0.34517   1.000
    C635    C    0.34429   0.69481   0.35819   1.000
    C636    C    0.34763   0.70859   0.37040   1.000
    C637    C    0.36359   0.71811   0.36496   1.000
    C638    C    0.36928   0.70894   0.34875   1.000
    C639    C    0.33893   0.71131   0.38239   1.000
    C640    C    0.38132   0.71212   0.34024   1.000
    C641    C    0.30459   0.65776   0.35759   1.000
    C642    C    0.30423   0.64462   0.34474   1.000
    C643    C    0.28930   0.63354   0.34779   1.000
    C644    C    0.27981   0.64012   0.36330   1.000
    C645    C    0.28996   0.65547   0.36912   1.000
    C646    C    0.28554   0.62168   0.33927   1.000
    C647    C    0.28707   0.66419   0.38106   1.000
    C648    C    0.32334   0.67106   0.33052   1.000
    C649    C    0.33862   0.65579   0.34538   1.000
    C650    C    0.34382   0.14450   0.80655   1.000
    C651    C    0.35655   0.15772   0.80659   1.000
    C652    C    0.36834   0.15499   0.79226   1.000
    C653    C    0.36284   0.13917   0.78259   1.000
    C654    C    0.34714   0.13287   0.79213   1.000
    C655    C    0.38016   0.16384   0.78921   1.000
    C656    C    0.33876   0.12074   0.78890   1.000
    C657    C    0.35656   0.17728   0.82531   1.000
    C658    C    0.32398   0.14358   0.82535   1.000
    C659    C    0.32421   0.17869   0.85896   1.000
    C660    C    0.35675   0.19680   0.84409   1.000
    C661    C    0.34405   0.19734   0.85729   1.000
    C662    C    0.34743   0.21210   0.86844   1.000
    C663    C    0.36316   0.22137   0.86186   1.000
    C664    C    0.36863   0.21119   0.84637   1.000
    C665    C    0.33906   0.21573   0.88044   1.000
    C666    C    0.38051   0.21389   0.83749   1.000
    C667    C    0.30534   0.15859   0.85829   1.000
    C668    C    0.30520   0.14523   0.84559   1.000
    C669    C    0.29067   0.13374   0.84903   1.000
    C670    C    0.28116   0.14015   0.86464   1.000
    C671    C    0.29095   0.15594   0.87008   1.000
    C672    C    0.28721   0.12166   0.84070   1.000
    C673    C    0.28791   0.16483   0.88186   1.000
    C674    C    0.32339   0.17190   0.83084   1.000
    C675    C    0.33863   0.15715   0.84609   1.000
    C676    C    0.84280   0.64103   0.80432   1.000
    C677    C    0.85509   0.65458   0.80314   1.000
    C678    C    0.86613   0.65149   0.78820   1.000
    C679    C    0.86035   0.63511   0.77956   1.000
    C680    C    0.84550   0.62892   0.79028   1.000
    C681    C    0.87745   0.66050   0.78392   1.000
    C682    C    0.83733   0.61641   0.78821   1.000
    C683    C    0.85541   0.67475   0.82140   1.000
    C684    C    0.82424   0.63983   0.82396   1.000
    C685    C    0.82456   0.67495   0.85712   1.000
    C686    C    0.85595   0.69392   0.84066   1.000
    C687    C    0.84388   0.69404   0.85447   1.000
    C688    C    0.84764   0.70860   0.86575   1.000
    C689    C    0.86295   0.71818   0.85868   1.000
    C690    C    0.86780   0.70837   0.84272   1.000
    C691    C    0.83984   0.71183   0.87824   1.000
    C692    C    0.87923   0.71136   0.83336   1.000
    C693    C    0.80624   0.65426   0.85728   1.000
    C694    C    0.80647   0.64079   0.84473   1.000
    C695    C    0.79302   0.62834   0.84878   1.000
    C696    C    0.78378   0.63415   0.86464   1.000
    C697    C    0.79246   0.65073   0.86964   1.000
    C698    C    0.79008   0.61594   0.84071   1.000
    C699    C    0.78926   0.65930   0.88163   1.000
    C700    C    0.82285   0.66839   0.82928   1.000
    C701    C    0.83965   0.65450   0.84379   1.000
    C702    C    0.84649   0.14371   0.30522   1.000
    C703    C    0.85862   0.15747   0.30594   1.000
    C704    C    0.87108   0.15538   0.29200   1.000
    C705    C    0.86656   0.13944   0.28194   1.000
    C706    C    0.85081   0.13245   0.29081   1.000
    C707    C    0.88267   0.16471   0.28950   1.000
    C708    C    0.84304   0.12004   0.28719   1.000
    C709    C    0.85718   0.17662   0.32522   1.000
    C710    C    0.82622   0.14117   0.32320   1.000
    C711    C    0.82385   0.17431   0.35828   1.000
    C712    C    0.85592   0.19473   0.34549   1.000
    C713    C    0.84284   0.19374   0.35830   1.000
    C714    C    0.84532   0.20762   0.37071   1.000
    C715    C    0.86085   0.21795   0.36550   1.000
    C716    C    0.86719   0.20930   0.34936   1.000
    C717    C    0.83650   0.20985   0.38272   1.000
    C718    C    0.87922   0.21316   0.34113   1.000
    C719    C    0.80586   0.15361   0.35601   1.000
    C720    C    0.80673   0.14096   0.34267   1.000
    C721    C    0.79275   0.12858   0.34509   1.000
    C722    C    0.78254   0.13364   0.36074   1.000
    C723    C    0.79133   0.14962   0.36724   1.000
    C724    C    0.79026   0.11672   0.33612   1.000
    C725    C    0.78758   0.15768   0.37941   1.000
    C726    C    0.82421   0.16916   0.32987   1.000
    C727    C    0.84005   0.15453   0.34472   1.000
    C728    C    0.65521   0.35598   0.30641   1.000
    C729    C    0.64298   0.34233   0.30598   1.000
    C730    C    0.63048   0.34557   0.29233   1.000
    C731    C    0.63510   0.36217   0.28337   1.000
    C732    C    0.65099   0.36838   0.29280   1.000
    C733    C    0.61897   0.33633   0.28923   1.000
    C734    C    0.65887   0.38098   0.29015   1.000
    C735    C    0.64454   0.32131   0.32293   1.000
    C736    C    0.67529   0.35661   0.32505   1.000
    C737    C    0.67435   0.32165   0.35898   1.000
    C738    C    0.64207   0.30374   0.34334   1.000
    C739    C    0.65395   0.30359   0.35732   1.000
    C740    C    0.64926   0.28978   0.36924   1.000
    C741    C    0.63344   0.28077   0.36237   1.000
    C742    C    0.62933   0.29019   0.34587   1.000
    C743    C    0.65683   0.28669   0.38195   1.000
    C744    C    0.61800   0.28750   0.33626   1.000
    C745    C    0.69372   0.34126   0.35811   1.000
    C746    C    0.69415   0.35454   0.34527   1.000
    C747    C    0.70892   0.36573   0.34866   1.000
    C748    C    0.71827   0.35921   0.36440   1.000
    C749    C    0.70815   0.34365   0.36995   1.000
    C750    C    0.71257   0.37775   0.34025   1.000
    C751    C    0.71095   0.33476   0.38185   1.000
    C752    C    0.67693   0.32840   0.33095   1.000
    C753    C    0.65976   0.34235   0.34472   1.000
    C754    C    0.65594   0.85651   0.80544   1.000
    C755    C    0.64507   0.84180   0.80389   1.000
    C756    C    0.63265   0.84467   0.79007   1.000
    C757    C    0.63584   0.86217   0.78241   1.000
    C758    C    0.65082   0.86927   0.79251   1.000
    C759    C    0.62208   0.83470   0.78599   1.000
    C760    C    0.65728   0.88283   0.79087   1.000
    C761    C    0.64744   0.82044   0.82029   1.000
    C762    C    0.67544   0.85797   0.82457   1.000
    C763    C    0.67469   0.82314   0.85830   1.000
    C764    C    0.64438   0.80342   0.84106   1.000
    C765    C    0.65501   0.80452   0.85598   1.000
    C766    C    0.64967   0.79137   0.86832   1.000
    C767    C    0.63481   0.78150   0.86074   1.000
    C768    C    0.63188   0.78960   0.84336   1.000
    C769    C    0.65599   0.78939   0.88191   1.000
    C770    C    0.62144   0.78582   0.83311   1.000
    C771    C    0.69343   0.84323   0.85802   1.000
    C772    C    0.69379   0.85655   0.84524   1.000
    C773    C    0.70818   0.86810   0.84894   1.000
    C774    C    0.71734   0.86175   0.86487   1.000
    C775    C    0.70753   0.84592   0.87016   1.000
    C776    C    0.71165   0.88025   0.84066   1.000
    C777    C    0.71039   0.83695   0.88197   1.000
    C778    C    0.67862   0.82982   0.83028   1.000
    C779    C    0.65952   0.84252   0.84285   1.000
    C780    C    0.15883   0.35816   0.80631   1.000
    C781    C    0.14522   0.34586   0.80586   1.000
    C782    C    0.13406   0.34963   0.79115   1.000
    C783    C    0.14101   0.36517   0.78183   1.000
    C784    C    0.15679   0.37015   0.79193   1.000
    C785    C    0.12175   0.34168   0.78756   1.000
    C786    C    0.16611   0.38170   0.78917   1.000
    C787    C    0.14337   0.32631   0.82474   1.000
    C788    C    0.17808   0.35792   0.82563   1.000
    C789    C    0.17523   0.32294   0.85916   1.000
    C790    C    0.14208   0.30654   0.84345   1.000
    C791    C    0.15455   0.30536   0.85689   1.000
    C792    C    0.15036   0.29076   0.86800   1.000
    C793    C    0.13429   0.28218   0.86123   1.000
    C794    C    0.12952   0.29268   0.84554   1.000
    C795    C    0.15849   0.28683   0.88012   1.000
    C796    C    0.11774   0.29056   0.83634   1.000
    C797    C    0.19510   0.34205   0.85906   1.000
    C798    C    0.19619   0.35534   0.84629   1.000
    C799    C    0.21104   0.36624   0.85011   1.000
    C800    C    0.21980   0.35955   0.86609   1.000
    C801    C    0.20924   0.34416   0.87133   1.000
    C802    C    0.21510   0.37821   0.84186   1.000
    C803    C    0.21155   0.33522   0.88330   1.000
    C804    C    0.17671   0.32955   0.83109   1.000
    C805    C    0.16213   0.34517   0.84602   1.000
    C806    C    0.15256   0.85532   0.30531   1.000
    C807    C    0.14026   0.84175   0.30652   1.000
    C808    C    0.12761   0.84373   0.29269   1.000
    C809    C    0.13218   0.85943   0.28222   1.000
    C810    C    0.14816   0.86637   0.29071   1.000
    C811    C    0.11586   0.83452   0.29054   1.000
    C812    C    0.15601   0.87862   0.28672   1.000
    C813    C    0.14186   0.82310   0.32632   1.000
    C814    C    0.17314   0.85800   0.32296   1.000
    C815    C    0.17658   0.82459   0.35798   1.000
    C816    C    0.14415   0.80425   0.34588   1.000
    C817    C    0.15777   0.80494   0.35817   1.000
    C818    C    0.15602   0.79060   0.37023   1.000
    C819    C    0.14038   0.78020   0.36532   1.000
    C820    C    0.13325   0.78939   0.34969   1.000
    C821    C    0.16545   0.78814   0.38178   1.000
    C822    C    0.12097   0.78571   0.34172   1.000
    C823    C    0.19425   0.84555   0.35545   1.000
    C824    C    0.19295   0.85828   0.34214   1.000
    C825    C    0.20674   0.87087   0.34440   1.000
    C826    C    0.21728   0.86588   0.35991   1.000
    C827    C    0.20889   0.84970   0.36651   1.000
    C828    C    0.20880   0.88290   0.33548   1.000
    C829    C    0.21301   0.84159   0.37858   1.000
    C830    C    0.17507   0.82994   0.32963   1.000
    C831    C    0.16023   0.84477   0.34512   1.000
    C832    C    0.06562   0.01708   0.09181   1.000
    C833    C    0.08725   0.01691   0.11379   1.000
    C834    C    0.07225   0.02358   0.10692   1.000
    C835    C    0.06292   0.03956   0.11624   1.000
    C836    C    0.07079   0.04731   0.13242   1.000
    C837    C    0.08304   0.04088   0.13866   1.000
    C838    C    0.93105   0.98206   0.09195   1.000
    C839    C    0.90896   0.98225   0.11337   1.000
    C840    C    0.92413   0.97559   0.10697   1.000
    C841    C    0.93352   0.95967   0.11658   1.000
    C842    C    0.92587   0.95173   0.13290   1.000
    C843    C    0.91333   0.95764   0.13897   1.000
    C844    C    0.01754   0.09320   0.06590   1.000
    C845    C    0.01781   0.11512   0.08750   1.000
    C846    C    0.02430   0.10823   0.07249   1.000
    C847    C    0.04035   0.11732   0.06298   1.000
    C848    C    0.04855   0.13355   0.07045   1.000
    C849    C    0.04272   0.13989   0.08287   1.000
    C850    C    0.97972   0.90582   0.06684   1.000
    C851    C    0.97909   0.88420   0.08885   1.000
    C852    C    0.97291   0.89085   0.07355   1.000
    C853    C    0.95720   0.88155   0.06377   1.000
    C854    C    0.94908   0.86522   0.07113   1.000
    C855    C    0.95474   0.85897   0.08374   1.000
    C856    C    0.09326   0.06587   0.01740   1.000
    C857    C    0.11539   0.08730   0.01763   1.000
    C858    C    0.10845   0.07225   0.02404   1.000
    C859    C    0.11773   0.06238   0.03978   1.000
    C860    C    0.13447   0.06923   0.04751   1.000
    C861    C    0.14112   0.08142   0.04146   1.000
    C862    C    0.90638   0.93308   0.01627   1.000
    C863    C    0.88417   0.91174   0.01601   1.000
    C864    C    0.89106   0.92672   0.02256   1.000
    C865    C    0.88152   0.93627   0.03822   1.000
    C866    C    0.86533   0.92843   0.04597   1.000
    C867    C    0.85924   0.91607   0.03972   1.000
    C868    C    0.98049   0.06828   0.09148   1.000
    C869    C    0.98069   0.09007   0.11320   1.000
    C870    C    0.97407   0.07498   0.10659   1.000
    C871    C    0.95831   0.06543   0.11614   1.000
    C872    C    0.95043   0.07296   0.13248   1.000
    C873    C    0.95624   0.08558   0.13847   1.000
    C874    C    0.01636   0.93104   0.09249   1.000
    C875    C    0.01598   0.90942   0.11451   1.000
    C876    C    0.02266   0.92443   0.10775   1.000
    C877    C    0.03837   0.93398   0.11729   1.000
    C878    C    0.04633   0.92635   0.13361   1.000
    C879    C    0.04057   0.91369   0.13962   1.000
    C880    C    0.09129   0.97998   0.06704   1.000
    C881    C    0.11292   0.97993   0.08904   1.000
    C882    C    0.10638   0.97347   0.07387   1.000
    C883    C    0.11610   0.95785   0.06440   1.000
    C884    C    0.13315   0.95094   0.07138   1.000
    C885    C    0.13953   0.95746   0.08345   1.000
    C886    C    0.90632   0.01892   0.06561   1.000
    C887    C    0.88415   0.01931   0.08695   1.000
    C888    C    0.89114   0.02566   0.07190   1.000
    C889    C    0.88198   0.04151   0.06198   1.000
    C890    C    0.86568   0.04982   0.06923   1.000
    C891    C    0.85939   0.04425   0.08181   1.000
    C892    C    0.93273   0.09396   0.01557   1.000
    C893    C    0.91086   0.11574   0.01506   1.000
    C894    C    0.92590   0.10910   0.02188   1.000
    C895    C    0.93510   0.11865   0.03781   1.000
    C896    C    0.92714   0.13482   0.04559   1.000
    C897    C    0.91485   0.14099   0.03917   1.000
    C898    C    0.06565   0.90400   0.01900   1.000
    C899    C    0.08754   0.88223   0.01933   1.000
    C900    C    0.07232   0.88888   0.02561   1.000
    C901    C    0.06251   0.87939   0.04120   1.000
    C902    C    0.06958   0.86275   0.04906   1.000
    C903    C    0.08188   0.85623   0.04311   1.000
    C904    C    0.93157   0.01872   0.09158   1.000
    C905    C    0.90948   0.01901   0.11300   1.000
    C906    C    0.92476   0.02535   0.10655   1.000
    C907    C    0.93428   0.04109   0.11610   1.000
    C908    C    0.92669   0.04879   0.13244   1.000
    C909    C    0.91447   0.04244   0.13869   1.000
    C910    C    0.06546   0.98038   0.09236   1.000
    C911    C    0.08711   0.98031   0.11433   1.000
    C912    C    0.07200   0.97391   0.10759   1.000
    C913    C    0.06241   0.95825   0.11717   1.000
    C914    C    0.07010   0.95044   0.13348   1.000
    C915    C    0.08243   0.95666   0.13968   1.000
    C916    C    0.01626   0.90512   0.06730   1.000
    C917    C    0.01565   0.88347   0.08929   1.000
    C918    C    0.02238   0.88987   0.07417   1.000
    C919    C    0.03793   0.87987   0.06487   1.000
    C920    C    0.04512   0.86320   0.07245   1.000
    C921    C    0.03881   0.85728   0.08487   1.000
    C922    C    0.98089   0.09383   0.06573   1.000
    C923    C    0.98100   0.11570   0.08737   1.000
    C924    C    0.97449   0.10906   0.07225   1.000
    C925    C    0.95884   0.11867   0.06249   1.000
    C926    C    0.95062   0.13485   0.07007   1.000
    C927    C    0.95618   0.14074   0.08285   1.000
    C928    C    0.90760   0.06799   0.01538   1.000
    C929    C    0.88573   0.08978   0.01486   1.000
    C930    C    0.89239   0.07470   0.02161   1.000
    C931    C    0.88268   0.06538   0.03738   1.000
    C932    C    0.86643   0.07339   0.04486   1.000
    C933    C    0.86045   0.08576   0.03840   1.000
    C934    C    0.09116   0.92962   0.01906   1.000
    C935    C    0.11314   0.90794   0.01933   1.000
    C936    C    0.10639   0.92312   0.02558   1.000
    C937    C    0.11604   0.93311   0.04091   1.000
    C938    C    0.13304   0.92634   0.04817   1.000
    C939    C    0.13955   0.91413   0.04203   1.000
    C940    C    0.97982   0.93185   0.09189   1.000
    C941    C    0.97942   0.91025   0.11393   1.000
    C942    C    0.97319   0.92544   0.10705   1.000
    C943    C    0.95758   0.93527   0.11646   1.000
    C944    C    0.94980   0.92767   0.13274   1.000
    C945    C    0.95598   0.91528   0.13896   1.000
    C946    C    0.01705   0.06764   0.09152   1.000
    C947    C    0.01737   0.08946   0.11321   1.000
    C948    C    0.02364   0.07419   0.10662   1.000
    C949    C    0.03923   0.06432   0.11618   1.000
    C950    C    0.04739   0.07186   0.13238   1.000
    C951    C    0.04186   0.08465   0.13830   1.000
    C952    C    0.90594   0.98229   0.06585   1.000
    C953    C    0.88378   0.98254   0.08720   1.000
    C954    C    0.89065   0.97594   0.07224   1.000
    C955    C    0.88121   0.96022   0.06257   1.000
    C956    C    0.86498   0.95208   0.07012   1.000
    C957    C    0.85889   0.95770   0.08276   1.000
    C958    C    0.09173   0.01652   0.06674   1.000
    C959    C    0.11332   0.01632   0.08878   1.000
    C960    C    0.10694   0.02273   0.07348   1.000
    C961    C    0.11701   0.03802   0.06381   1.000
    C962    C    0.13384   0.04493   0.07116   1.000
    C963    C    0.13981   0.03859   0.08359   1.000
    C964    C    0.93127   0.90679   0.01683   1.000
    C965    C    0.90903   0.88547   0.01667   1.000
    C966    C    0.92421   0.89183   0.02333   1.000
    C967    C    0.93337   0.88212   0.03922   1.000
    C968    C    0.92544   0.86586   0.04682   1.000
    C969    C    0.91312   0.85984   0.04042   1.000
    C970    C    0.06760   0.09153   0.01706   1.000
    C971    C    0.08970   0.11297   0.01728   1.000
    C972    C    0.07438   0.10657   0.02357   1.000
    C973    C    0.06480   0.11637   0.03910   1.000
    C974    C    0.07270   0.13257   0.04678   1.000
    C975    C    0.08522   0.13845   0.04064   1.000
    C976    C    0.07633   0.99850   0.07729   1.000
    C977    C    0.10227   0.99837   0.10373   1.000
    C978    C    0.92092   0.00045   0.07663   1.000
    C979    C    0.89438   0.00083   0.10227   1.000
    C980    C    0.99894   0.07859   0.07649   1.000
    C981    C    0.99924   0.10479   0.10247   1.000
    C982    C    0.99811   0.92061   0.07741   1.000
    C983    C    0.99747   0.89468   0.10387   1.000
    C984    C    0.04704   0.04806   0.10830   1.000
    C985    C    0.04111   0.04237   0.09560   1.000
    C986    C    0.06330   0.06354   0.14046   1.000
    C987    C    0.94947   0.95137   0.10858   1.000
    C988    C    0.95524   0.95710   0.09581   1.000
    C989    C    0.93385   0.93559   0.14093   1.000
    C990    C    0.04853   0.10893   0.04720   1.000
    C991    C    0.04257   0.09622   0.04157   1.000
    C992    C    0.06483   0.14115   0.06253   1.000
    C993    C    0.94934   0.88976   0.04770   1.000
    C994    C    0.95531   0.90251   0.04211   1.000
    C995    C    0.93311   0.85738   0.06281   1.000
    C996    C    0.10921   0.04668   0.04797   1.000
    C997    C    0.09610   0.04156   0.04239   1.000
    C998    C    0.14261   0.06056   0.06319   1.000
    C999    C    0.88929   0.95226   0.04652   1.000
    C1000   C    0.90200   0.95816   0.04083   1.000
    C1001   C    0.85712   0.93603   0.06202   1.000
    C1002   C    0.95020   0.04941   0.10817   1.000
    C1003   C    0.95593   0.04374   0.09539   1.000
    C1004   C    0.93453   0.06482   0.14065   1.000
    C1005   C    0.04643   0.95003   0.10928   1.000
    C1006   C    0.04064   0.95577   0.09650   1.000
    C1007   C    0.06232   0.93439   0.14167   1.000
    C1008   C    0.10777   0.94896   0.04903   1.000
    C1009   C    0.09450   0.95406   0.04374   1.000
    C1010   C    0.14168   0.93518   0.06339   1.000
    C1011   C    0.89029   0.04934   0.04595   1.000
    C1012   C    0.90305   0.04330   0.04047   1.000
    C1013   C    0.85796   0.06588   0.06085   1.000
    C1014   C    0.95105   0.11080   0.04627   1.000
    C1015   C    0.95705   0.09813   0.04055   1.000
    C1016   C    0.93467   0.14294   0.06180   1.000
    C1017   C    0.04659   0.88771   0.04912   1.000
    C1018   C    0.04127   0.90071   0.04339   1.000
    C1019   C    0.06096   0.85455   0.06470   1.000
    C1020   C    0.06737   0.97988   0.90634   1.000
    C1021   C    0.08946   0.97934   0.88491   1.000
    C1022   C    0.07415   0.97314   0.89139   1.000
    C1023   C    0.06445   0.95754   0.88184   1.000
    C1024   C    0.07143   0.95023   0.86502   1.000
    C1025   C    0.08352   0.95657   0.85851   1.000
    C1026   C    0.93409   0.01822   0.90428   1.000
    C1027   C    0.91243   0.01826   0.88232   1.000
    C1028   C    0.92756   0.02467   0.88905   1.000
    C1029   C    0.93724   0.04025   0.87944   1.000
    C1030   C    0.93016   0.04749   0.86260   1.000
    C1031   C    0.91792   0.04121   0.85630   1.000
    C1032   C    0.98294   0.09321   0.93043   1.000
    C1033   C    0.98342   0.11500   0.90858   1.000
    C1034   C    0.97676   0.10848   0.92370   1.000
    C1035   C    0.96124   0.11835   0.93319   1.000
    C1036   C    0.95417   0.13522   0.92595   1.000
    C1037   C    0.96053   0.14138   0.91368   1.000
    C1038   C    0.01766   0.90488   0.93253   1.000
    C1039   C    0.01765   0.88303   0.91085   1.000
    C1040   C    0.02395   0.88958   0.92609   1.000
    C1041   C    0.03916   0.87962   0.93607   1.000
    C1042   C    0.04626   0.86272   0.92909   1.000
    C1043   C    0.04015   0.85661   0.91667   1.000
    C1044   C    0.09093   0.93005   0.98268   1.000
    C1045   C    0.11292   0.90837   0.98290   1.000
    C1046   C    0.10623   0.92357   0.97644   1.000
    C1047   C    0.11607   0.93349   0.96116   1.000
    C1048   C    0.13317   0.92659   0.95447   1.000
    C1049   C    0.13938   0.91428   0.96083   1.000
    C1050   C    0.90766   0.06815   0.97878   1.000
    C1051   C    0.88575   0.08989   0.97829   1.000
    C1052   C    0.89252   0.07470   0.97207   1.000
    C1053   C    0.88303   0.06483   0.95651   1.000
    C1054   C    0.86603   0.07159   0.94919   1.000
    C1055   C    0.85936   0.08364   0.95547   1.000
    C1056   C    0.01923   0.06686   0.90543   1.000
    C1057   C    0.01974   0.08854   0.88347   1.000
    C1058   C    0.02588   0.07327   0.89029   1.000
    C1059   C    0.04132   0.06319   0.88088   1.000
    C1060   C    0.04889   0.07011   0.86417   1.000
    C1061   C    0.04277   0.08237   0.85763   1.000
    C1062   C    0.98175   0.93105   0.90641   1.000
    C1063   C    0.98176   0.90916   0.88478   1.000
    C1064   C    0.97542   0.92444   0.89122   1.000
    C1065   C    0.96006   0.93421   0.88128   1.000
    C1066   C    0.95237   0.92641   0.86505   1.000
    C1067   C    0.95841   0.91380   0.85924   1.000
    C1068   C    0.09305   0.01643   0.93186   1.000
    C1069   C    0.11517   0.01581   0.91047   1.000
    C1070   C    0.10842   0.02255   0.92541   1.000
    C1071   C    0.11821   0.03806   0.93504   1.000
    C1072   C    0.13504   0.04521   0.92789   1.000
    C1073   C    0.14120   0.03896   0.91558   1.000
    C1074   C    0.90818   0.98196   0.93002   1.000
    C1075   C    0.88652   0.98211   0.90804   1.000
    C1076   C    0.89301   0.97565   0.92329   1.000
    C1077   C    0.88314   0.96017   0.93285   1.000
    C1078   C    0.86675   0.95274   0.92507   1.000
    C1079   C    0.86077   0.95907   0.91265   1.000
    C1080   C    0.06821   0.09177   0.98050   1.000
    C1081   C    0.09029   0.11324   0.98073   1.000
    C1082   C    0.07513   0.10682   0.97408   1.000
    C1083   C    0.06586   0.11657   0.95826   1.000
    C1084   C    0.07370   0.13290   0.95069   1.000
    C1085   C    0.08597   0.13897   0.95715   1.000
    C1086   C    0.93173   0.90645   0.98033   1.000
    C1087   C    0.90953   0.88509   0.98025   1.000
    C1088   C    0.92492   0.89133   0.97400   1.000
    C1089   C    0.93465   0.88127   0.95879   1.000
    C1090   C    0.92746   0.86442   0.95177   1.000
    C1091   C    0.91502   0.85841   0.95794   1.000
    C1092   C    0.93362   0.98154   0.90440   1.000
    C1093   C    0.91197   0.98161   0.88243   1.000
    C1094   C    0.92697   0.97496   0.88931   1.000
    C1095   C    0.93638   0.95891   0.88018   1.000
    C1096   C    0.92885   0.95084   0.86392   1.000
    C1097   C    0.91646   0.95682   0.85752   1.000
    C1098   C    0.06745   0.01652   0.90618   1.000
    C1099   C    0.08954   0.01599   0.88476   1.000
    C1100   C    0.07437   0.02275   0.89108   1.000
    C1101   C    0.06502   0.03846   0.88119   1.000
    C1102   C    0.07240   0.04563   0.86446   1.000
    C1103   C    0.08473   0.03926   0.85842   1.000
    C1104   C    0.98116   0.90519   0.93177   1.000
    C1105   C    0.98115   0.88328   0.91015   1.000
    C1106   C    0.97462   0.89007   0.92516   1.000
    C1107   C    0.95888   0.88068   0.93477   1.000
    C1108   C    0.95140   0.86389   0.92786   1.000
    C1109   C    0.95772   0.85725   0.91584   1.000
    C1110   C    0.01948   0.09280   0.93056   1.000
    C1111   C    0.02005   0.11456   0.90868   1.000
    C1112   C    0.02628   0.10782   0.92392   1.000
    C1113   C    0.04201   0.11710   0.93371   1.000
    C1114   C    0.05011   0.13344   0.92634   1.000
    C1115   C    0.04445   0.13963   0.91370   1.000
    C1116   C    0.90662   0.93268   0.97968   1.000
    C1117   C    0.88441   0.91133   0.97946   1.000
    C1118   C    0.89145   0.92631   0.97300   1.000
    C1119   C    0.88229   0.93604   0.95711   1.000
    C1120   C    0.86589   0.92879   0.94905   1.000
    C1121   C    0.85953   0.91634   0.95487   1.000
    C1122   C    0.09350   0.06578   0.98083   1.000
    C1123   C    0.11560   0.08723   0.98104   1.000
    C1124   C    0.10879   0.07220   0.97450   1.000
    C1125   C    0.11837   0.06241   0.95897   1.000
    C1126   C    0.13514   0.06943   0.95151   1.000
    C1127   C    0.14161   0.08163   0.95770   1.000
    C1128   C    0.01824   0.93041   0.90673   1.000
    C1129   C    0.01824   0.90860   0.88502   1.000
    C1130   C    0.02471   0.92374   0.89164   1.000
    C1131   C    0.04025   0.93343   0.88198   1.000
    C1132   C    0.04736   0.92641   0.86512   1.000
    C1133   C    0.04113   0.91410   0.85892   1.000
    C1134   C    0.98276   0.06783   0.90470   1.000
    C1135   C    0.98318   0.08954   0.88277   1.000
    C1136   C    0.97651   0.07447   0.88943   1.000
    C1137   C    0.96100   0.06479   0.87967   1.000
    C1138   C    0.95362   0.07192   0.86285   1.000
    C1139   C    0.95979   0.08421   0.85651   1.000
    C1140   C    0.90829   0.01849   0.92967   1.000
    C1141   C    0.88660   0.01858   0.90773   1.000
    C1142   C    0.89315   0.02498   0.92293   1.000
    C1143   C    0.88335   0.04048   0.93257   1.000
    C1144   C    0.86633   0.04740   0.92554   1.000
    C1145   C    0.86014   0.04105   0.91329   1.000
    C1146   C    0.09197   0.97990   0.93292   1.000
    C1147   C    0.11413   0.97928   0.91156   1.000
    C1148   C    0.10716   0.97315   0.92671   1.000
    C1149   C    0.11652   0.95763   0.93687   1.000
    C1150   C    0.13359   0.95044   0.93039   1.000
    C1151   C    0.14035   0.95680   0.91844   1.000
    C1152   C    0.06601   0.90388   0.98249   1.000
    C1153   C    0.08789   0.88209   0.98268   1.000
    C1154   C    0.07276   0.88875   0.97609   1.000
    C1155   C    0.06317   0.87922   0.96042   1.000
    C1156   C    0.07022   0.86239   0.95310   1.000
    C1157   C    0.08233   0.85582   0.95945   1.000
    C1158   C    0.93331   0.09376   0.97899   1.000
    C1159   C    0.91145   0.11555   0.97848   1.000
    C1160   C    0.92673   0.10891   0.97233   1.000
    C1161   C    0.93665   0.11851   0.95688   1.000
    C1162   C    0.92970   0.13534   0.94933   1.000
    C1163   C    0.91744   0.14184   0.95539   1.000
    C1164   C    0.07773   0.99826   0.92143   1.000
    C1165   C    0.10429   0.99753   0.89579   1.000
    C1166   C    0.92326   0.00006   0.91925   1.000
    C1167   C    0.89722   0.00018   0.89292   1.000
    C1168   C    0.07846   0.07657   0.99892   1.000
    C1169   C    0.10494   0.10235   0.99920   1.000
    C1170   C    0.07620   0.91901   0.00081   1.000
    C1171   C    0.10257   0.89296   0.00106   1.000
    C1172   C    0.92252   0.07880   0.99718   1.000
    C1173   C    0.89625   0.10490   0.99660   1.000
    C1174   C    0.92122   0.92190   0.99825   1.000
    C1175   C    0.89453   0.89630   0.99807   1.000
    C1176   C    0.00104   0.07802   0.91997   1.000
    C1177   C    0.00165   0.10410   0.89369   1.000
    C1178   C    0.99972   0.92006   0.92155   1.000
    C1179   C    0.99973   0.89383   0.89551   1.000
    C1180   C    0.04876   0.94912   0.89011   1.000
    C1181   C    0.04351   0.95445   0.90324   1.000
    C1182   C    0.06295   0.93468   0.85656   1.000
    C1183   C    0.95279   0.04886   0.88774   1.000
    C1184   C    0.95815   0.04349   0.90086   1.000
    C1185   C    0.93820   0.06332   0.85421   1.000
    C1186   C    0.95252   0.11024   0.94880   1.000
    C1187   C    0.95774   0.09709   0.95429   1.000
    C1188   C    0.93838   0.14378   0.93387   1.000
    C1189   C    0.04754   0.88762   0.95188   1.000
    C1190   C    0.04228   0.90079   0.95718   1.000
    C1191   C    0.06180   0.85405   0.93746   1.000
    C1192   C    0.10792   0.94915   0.95238   1.000
    C1193   C    0.09457   0.95437   0.95725   1.000
    C1194   C    0.14195   0.93490   0.93906   1.000
    C1195   C    0.89148   0.04917   0.94817   1.000
    C1196   C    0.90474   0.04407   0.95350   1.000
    C1197   C    0.85757   0.06295   0.93371   1.000
    C1198   C    0.04936   0.04724   0.88917   1.000
    C1199   C    0.04379   0.04202   0.90223   1.000
    C1200   C    0.06446   0.06150   0.85590   1.000
    C1201   C    0.95209   0.95056   0.88865   1.000
    C1202   C    0.95775   0.95643   0.90138   1.000
    C1203   C    0.93667   0.93446   0.85640   1.000
    C1204   C    0.11012   0.04663   0.95071   1.000
    C1205   C    0.09702   0.04136   0.95613   1.000
    C1206   C    0.14356   0.06093   0.93596   1.000
    C1207   C    0.89073   0.95184   0.94897   1.000
    C1208   C    0.90357   0.95729   0.95484   1.000
    C1209   C    0.85814   0.93697   0.93293   1.000
    C1210   C    0.04991   0.10888   0.94977   1.000
    C1211   C    0.04399   0.09610   0.95533   1.000
    C1212   C    0.06605   0.14134   0.93466   1.000
    C1213   C    0.95049   0.88914   0.95034   1.000
    C1214   C    0.95595   0.90226   0.95553   1.000
    C1215   C    0.93569   0.85566   0.93628   1.000
    C1216   C    0.98308   0.43297   0.40808   1.000
    C1217   C    0.98301   0.41135   0.38617   1.000
    C1218   C    0.97649   0.42642   0.39298   1.000
    C1219   C    0.96057   0.43588   0.38359   1.000
    C1220   C    0.95293   0.42814   0.36732   1.000
    C1221   C    0.95940   0.41595   0.36111   1.000
    C1222   C    0.01823   0.56887   0.40867   1.000
    C1223   C    0.01787   0.59079   0.38693   1.000
    C1224   C    0.02450   0.57565   0.39350   1.000
    C1225   C    0.04007   0.56628   0.38367   1.000
    C1226   C    0.04733   0.57414   0.36726   1.000
    C1227   C    0.04082   0.58648   0.36128   1.000
    C1228   C    0.90626   0.48195   0.43306   1.000
    C1229   C    0.88472   0.48229   0.41098   1.000
    C1230   C    0.89111   0.47571   0.42622   1.000
    C1231   C    0.88125   0.46017   0.43574   1.000
    C1232   C    0.86447   0.45306   0.42847   1.000
    C1233   C    0.85831   0.45942   0.41615   1.000
    C1234   C    0.09307   0.51877   0.43276   1.000
    C1235   C    0.11472   0.51924   0.41087   1.000
    C1236   C    0.10823   0.52526   0.42624   1.000
    C1237   C    0.11810   0.54039   0.43628   1.000
    C1238   C    0.13512   0.54730   0.42945   1.000
    C1239   C    0.14136   0.54112   0.41714   1.000
    C1240   C    0.93216   0.40709   0.48096   1.000
    C1241   C    0.91068   0.38502   0.48084   1.000
    C1242   C    0.92575   0.39189   0.47442   1.000
    C1243   C    0.93563   0.38247   0.45881   1.000
    C1244   C    0.92815   0.36624   0.45064   1.000
    C1245   C    0.91534   0.36029   0.45607   1.000
    C1246   C    0.06829   0.59345   0.48264   1.000
    C1247   C    0.09002   0.61529   0.48263   1.000
    C1248   C    0.07481   0.60870   0.47627   1.000
    C1249   C    0.06487   0.61852   0.46092   1.000
    C1250   C    0.07190   0.63531   0.45351   1.000
    C1251   C    0.08424   0.64161   0.45961   1.000
    C1252   C    0.93268   0.51829   0.40808   1.000
    C1253   C    0.91133   0.51847   0.38581   1.000
    C1254   C    0.92640   0.52479   0.39277   1.000
    C1255   C    0.93635   0.54029   0.38330   1.000
    C1256   C    0.92979   0.54730   0.36614   1.000
    C1257   C    0.91793   0.54078   0.35936   1.000
    C1258   C    0.06740   0.48284   0.40658   1.000
    C1259   C    0.08891   0.48344   0.38456   1.000
    C1260   C    0.07390   0.47673   0.39127   1.000
    C1261   C    0.06437   0.46114   0.38160   1.000
    C1262   C    0.07144   0.45416   0.36473   1.000
    C1263   C    0.08350   0.46074   0.35837   1.000
    C1264   C    0.01997   0.40675   0.43284   1.000
    C1265   C    0.01992   0.38515   0.41093   1.000
    C1266   C    0.02650   0.39169   0.42605   1.000
    C1267   C    0.04241   0.38219   0.43546   1.000
    C1268   C    0.05038   0.36587   0.42790   1.000
    C1269   C    0.04440   0.35966   0.41547   1.000
    C1270   C    0.98144   0.59434   0.43411   1.000
    C1271   C    0.98131   0.61617   0.41229   1.000
    C1272   C    0.97493   0.60951   0.42743   1.000
    C1273   C    0.95937   0.61920   0.43701   1.000
    C1274   C    0.95223   0.63609   0.42988   1.000
    C1275   C    0.95857   0.64236   0.41766   1.000
    C1276   C    0.90702   0.56778   0.48223   1.000
    C1277   C    0.88511   0.58953   0.48246   1.000
    C1278   C    0.89185   0.57448   0.47582   1.000
    C1279   C    0.88236   0.56511   0.45999   1.000
    C1280   C    0.86619   0.57300   0.45210   1.000
    C1281   C    0.86005   0.58536   0.45832   1.000
    C1282   C    0.09546   0.43303   0.48078   1.000
    C1283   C    0.11741   0.41132   0.48060   1.000
    C1284   C    0.11052   0.42640   0.47409   1.000
    C1285   C    0.11959   0.43600   0.45810   1.000
    C1286   C    0.13577   0.42854   0.44977   1.000
    C1287   C    0.14211   0.41597   0.45545   1.000
    C1288   C    0.98176   0.56824   0.40896   1.000
    C1289   C    0.98153   0.59007   0.38714   1.000
    C1290   C    0.97536   0.57475   0.39372   1.000
    C1291   C    0.96026   0.56468   0.38378   1.000
    C1292   C    0.95355   0.57140   0.36658   1.000
    C1293   C    0.95977   0.58372   0.36033   1.000
    C1294   C    0.01962   0.43246   0.40713   1.000
    C1295   C    0.01953   0.41087   0.38521   1.000
    C1296   C    0.02591   0.42604   0.39182   1.000
    C1297   C    0.04114   0.43608   0.38197   1.000
    C1298   C    0.04858   0.42917   0.36515   1.000
    C1299   C    0.04270   0.41673   0.35887   1.000
    C1300   C    0.09351   0.48231   0.43167   1.000
    C1301   C    0.11502   0.48281   0.40965   1.000
    C1302   C    0.10862   0.47603   0.42475   1.000
    C1303   C    0.11851   0.46027   0.43398   1.000
    C1304   C    0.13469   0.45267   0.42593   1.000
    C1305   C    0.14051   0.45905   0.41350   1.000
    C1306   C    0.90662   0.51853   0.43308   1.000
    C1307   C    0.88519   0.51895   0.41090   1.000
    C1308   C    0.89168   0.52529   0.42616   1.000
    C1309   C    0.88220   0.54112   0.43566   1.000
    C1310   C    0.86598   0.54928   0.42798   1.000
    C1311   C    0.85993   0.54359   0.41533   1.000
    C1312   C    0.93183   0.59403   0.48241   1.000
    C1313   C    0.90999   0.61585   0.48270   1.000
    C1314   C    0.92513   0.60930   0.47614   1.000
    C1315   C    0.93483   0.61911   0.46070   1.000
    C1316   C    0.92775   0.63595   0.45326   1.000
    C1317   C    0.91545   0.64233   0.45935   1.000
    C1318   C    0.06990   0.40754   0.48114   1.000
    C1319   C    0.09180   0.38578   0.48120   1.000
    C1320   C    0.07657   0.39237   0.47479   1.000
    C1321   C    0.06693   0.38267   0.45929   1.000
    C1322   C    0.07470   0.36643   0.45152   1.000
    C1323   C    0.08724   0.36041   0.45758   1.000
    C1324   C    0.06769   0.51947   0.40689   1.000
    C1325   C    0.08927   0.52007   0.38496   1.000
    C1326   C    0.07418   0.52635   0.39185   1.000
    C1327   C    0.06439   0.54225   0.38272   1.000
    C1328   C    0.07150   0.55039   0.36628   1.000
    C1329   C    0.08394   0.54466   0.35983   1.000
    C1330   C    0.93240   0.48172   0.40804   1.000
    C1331   C    0.91093   0.48183   0.38590   1.000
    C1332   C    0.92598   0.47527   0.39281   1.000
    C1333   C    0.93580   0.45959   0.38343   1.000
    C1334   C    0.92838   0.45154   0.36710   1.000
    C1335   C    0.91567   0.45713   0.36098   1.000
    C1336   C    0.01805   0.59415   0.43446   1.000
    C1337   C    0.01783   0.61603   0.41268   1.000
    C1338   C    0.02441   0.60933   0.42780   1.000
    C1339   C    0.04008   0.61890   0.43734   1.000
    C1340   C    0.04728   0.63571   0.43019   1.000
    C1341   C    0.04090   0.64204   0.41797   1.000
    C1342   C    0.98321   0.40685   0.43306   1.000
    C1343   C    0.98319   0.38523   0.41116   1.000
    C1344   C    0.97662   0.39184   0.42625   1.000
    C1345   C    0.96060   0.38242   0.43544   1.000
    C1346   C    0.95286   0.36622   0.42754   1.000
    C1347   C    0.95937   0.35999   0.41540   1.000
    C1348   C    0.09371   0.56763   0.48249   1.000
    C1349   C    0.11555   0.58936   0.48243   1.000
    C1350   C    0.10885   0.57422   0.47602   1.000
    C1351   C    0.11838   0.56445   0.46049   1.000
    C1352   C    0.13533   0.57126   0.45333   1.000
    C1353   C    0.14192   0.58331   0.45967   1.000
    C1354   C    0.90610   0.43232   0.48138   1.000
    C1355   C    0.88451   0.41036   0.48132   1.000
    C1356   C    0.89095   0.42566   0.47496   1.000
    C1357   C    0.88120   0.43554   0.45951   1.000
    C1358   C    0.86445   0.42855   0.45197   1.000
    C1359   C    0.85805   0.41626   0.45808   1.000
    C1360   C    0.00158   0.42188   0.42250   1.000
    C1361   C    0.00140   0.39597   0.39621   1.000
    C1362   C    0.99986   0.57923   0.42378   1.000
    C1363   C    0.99957   0.60547   0.39759   1.000
    C1364   C    0.92162   0.50008   0.42279   1.000
    C1365   C    0.89590   0.50041   0.39617   1.000
    C1366   C    0.07822   0.50081   0.42164   1.000
    C1367   C    0.10412   0.50146   0.39529   1.000
    C1368   C    0.95200   0.45169   0.39150   1.000
    C1369   C    0.95761   0.45752   0.40428   1.000
    C1370   C    0.93677   0.43568   0.35912   1.000
    C1371   C    0.04858   0.55024   0.39122   1.000
    C1372   C    0.04322   0.54431   0.40406   1.000
    C1373   C    0.06312   0.56646   0.35857   1.000
    C1374   C    0.88935   0.45147   0.45139   1.000
    C1375   C    0.90243   0.45673   0.45689   1.000
    C1376   C    0.85598   0.43723   0.43645   1.000
    C1377   C    0.10996   0.54889   0.45196   1.000
    C1378   C    0.09669   0.54379   0.45712   1.000
    C1379   C    0.14375   0.56276   0.43781   1.000
    C1380   C    0.95195   0.39036   0.45117   1.000
    C1381   C    0.95761   0.40306   0.45712   1.000
    C1382   C    0.93658   0.35814   0.43490   1.000
    C1383   C    0.04886   0.61053   0.45283   1.000
    C1384   C    0.04356   0.59740   0.45823   1.000
    C1385   C    0.06321   0.64398   0.43813   1.000
    C1386   C    0.95171   0.54898   0.39193   1.000
    C1387   C    0.95662   0.54389   0.40534   1.000
    C1388   C    0.93828   0.56286   0.35773   1.000
    C1389   C    0.04906   0.45216   0.38997   1.000
    C1390   C    0.04370   0.45734   0.40311   1.000
    C1391   C    0.06372   0.43817   0.35643   1.000
    C1392   C    0.05070   0.39035   0.45127   1.000
    C1393   C    0.04487   0.40310   0.45698   1.000
    C1394   C    0.06663   0.35802   0.43578   1.000
    C1395   C    0.95073   0.61097   0.45254   1.000
    C1396   C    0.95606   0.59782   0.45793   1.000
    C1397   C    0.93642   0.64455   0.43786   1.000
    C1398   C    0.89018   0.54907   0.45176   1.000
    C1399   C    0.90287   0.54312   0.45757   1.000
    C1400   C    0.85802   0.56534   0.43602   1.000
    C1401   C    0.11117   0.45195   0.45015   1.000
    C1402   C    0.09852   0.45758   0.45625   1.000
    C1403   C    0.14332   0.43672   0.43356   1.000
    C1404   C    0.01943   0.43206   0.59204   1.000
    C1405   C    0.01947   0.40998   0.61361   1.000
    C1406   C    0.02581   0.42528   0.60721   1.000
    C1407   C    0.04119   0.43494   0.61715   1.000
    C1408   C    0.04812   0.42782   0.63413   1.000
    C1409   C    0.04178   0.41553   0.64029   1.000
    C1410   C    0.98244   0.56620   0.59283   1.000
    C1411   C    0.98243   0.58779   0.61476   1.000
    C1412   C    0.97604   0.57268   0.60804   1.000
    C1413   C    0.96063   0.56289   0.61771   1.000
    C1414   C    0.95363   0.56984   0.63463   1.000
    C1415   C    0.95993   0.58209   0.64089   1.000
    C1416   C    0.90715   0.51733   0.56733   1.000
    C1417   C    0.88551   0.51720   0.58922   1.000
    C1418   C    0.89198   0.52369   0.57401   1.000
    C1419   C    0.88216   0.53923   0.56434   1.000
    C1420   C    0.86504   0.54599   0.57114   1.000
    C1421   C    0.85850   0.53934   0.58307   1.000
    C1422   C    0.09492   0.48130   0.56762   1.000
    C1423   C    0.11662   0.48107   0.58954   1.000
    C1424   C    0.11012   0.47485   0.57425   1.000
    C1425   C    0.11999   0.45962   0.56428   1.000
    C1426   C    0.13683   0.45220   0.57131   1.000
    C1427   C    0.14309   0.45813   0.58373   1.000
    C1428   C    0.07026   0.40752   0.51756   1.000
    C1429   C    0.09221   0.38580   0.51771   1.000
    C1430   C    0.07699   0.39240   0.52410   1.000
    C1431   C    0.06729   0.38279   0.53969   1.000
    C1432   C    0.07487   0.36645   0.54775   1.000
    C1433   C    0.08764   0.36049   0.54222   1.000
    C1434   C    0.93251   0.59316   0.51880   1.000
    C1435   C    0.91066   0.61497   0.51922   1.000
    C1436   C    0.92594   0.60826   0.52543   1.000
    C1437   C    0.93596   0.61771   0.54086   1.000
    C1438   C    0.92924   0.63460   0.54833   1.000
    C1439   C    0.91696   0.64122   0.54235   1.000
    C1440   C    0.93297   0.48066   0.59271   1.000
    C1441   C    0.91145   0.48045   0.61471   1.000
    C1442   C    0.92652   0.47402   0.60786   1.000
    C1443   C    0.93632   0.45821   0.61712   1.000
    C1444   C    0.92907   0.45003   0.63347   1.000
    C1445   C    0.91653   0.45571   0.63977   1.000
    C1446   C    0.06896   0.51741   0.59326   1.000
    C1447   C    0.09058   0.51736   0.61527   1.000
    C1448   C    0.07541   0.52376   0.60852   1.000
    C1449   C    0.06539   0.53912   0.61814   1.000
    C1450   C    0.07213   0.54640   0.63510   1.000
    C1451   C    0.08438   0.54030   0.64165   1.000
    C1452   C    0.98322   0.40655   0.56579   1.000
    C1453   C    0.98349   0.38441   0.58730   1.000
    C1454   C    0.97694   0.39122   0.57223   1.000
    C1455   C    0.96137   0.38157   0.56257   1.000
    C1456   C    0.95433   0.36467   0.56968   1.000
    C1457   C    0.96077   0.35831   0.58185   1.000
    C1458   C    0.01889   0.59214   0.56756   1.000
    C1459   C    0.01878   0.61369   0.58953   1.000
    C1460   C    0.02518   0.60729   0.57431   1.000
    C1461   C    0.04051   0.61726   0.56470   1.000
    C1462   C    0.04723   0.63425   0.57177   1.000
    C1463   C    0.04074   0.64040   0.58396   1.000
    C1464   C    0.90637   0.43181   0.51790   1.000
    C1465   C    0.88484   0.40979   0.51802   1.000
    C1466   C    0.89140   0.42495   0.52454   1.000
    C1467   C    0.88205   0.43440   0.54044   1.000
    C1468   C    0.86581   0.42686   0.54862   1.000
    C1469   C    0.85956   0.41433   0.54288   1.000
    C1470   C    0.09410   0.56757   0.51895   1.000
    C1471   C    0.11590   0.58933   0.51899   1.000
    C1472   C    0.10930   0.57412   0.52538   1.000
    C1473   C    0.11903   0.56425   0.54083   1.000
    C1474   C    0.13592   0.57118   0.54805   1.000
    C1475   C    0.14236   0.58332   0.54170   1.000
    C1476   C    0.01896   0.56614   0.59289   1.000
    C1477   C    0.01881   0.58772   0.61484   1.000
    C1478   C    0.02527   0.57260   0.60816   1.000
    C1479   C    0.04070   0.56282   0.61797   1.000
    C1480   C    0.04748   0.56972   0.63500   1.000
    C1481   C    0.04096   0.58186   0.64127   1.000
    C1482   C    0.98285   0.43192   0.59160   1.000
    C1483   C    0.98304   0.40973   0.61305   1.000
    C1484   C    0.97644   0.42495   0.60661   1.000
    C1485   C    0.96073   0.43423   0.61637   1.000
    C1486   C    0.95331   0.42630   0.63269   1.000
    C1487   C    0.95978   0.41395   0.63868   1.000
    C1488   C    0.09446   0.51777   0.56772   1.000
    C1489   C    0.11621   0.51766   0.58960   1.000
    C1490   C    0.10958   0.52420   0.57444   1.000
    C1491   C    0.11918   0.53981   0.56479   1.000
    C1492   C    0.13608   0.54693   0.57179   1.000
    C1493   C    0.14238   0.54064   0.58407   1.000
    C1494   C    0.90734   0.48078   0.56720   1.000
    C1495   C    0.88578   0.48066   0.58917   1.000
    C1496   C    0.89230   0.47426   0.57397   1.000
    C1497   C    0.88264   0.45859   0.56455   1.000
    C1498   C    0.86648   0.45087   0.57245   1.000
    C1499   C    0.86051   0.45710   0.58485   1.000
    C1500   C    0.06842   0.59310   0.51904   1.000
    C1501   C    0.09011   0.61498   0.51917   1.000
    C1502   C    0.07497   0.60825   0.52554   1.000
    C1503   C    0.06506   0.61772   0.54101   1.000
    C1504   C    0.07175   0.63462   0.54844   1.000
    C1505   C    0.08393   0.64125   0.54240   1.000
    C1506   C    0.93260   0.40683   0.51739   1.000
    C1507   C    0.91118   0.38469   0.51743   1.000
    C1508   C    0.92634   0.39149   0.52376   1.000
    C1509   C    0.93649   0.38179   0.53905   1.000
    C1510   C    0.92960   0.36496   0.54649   1.000
    C1511   C    0.91723   0.35860   0.54051   1.000
    C1512   C    0.06899   0.48093   0.59282   1.000
    C1513   C    0.09059   0.48075   0.61485   1.000
    C1514   C    0.07548   0.47437   0.60802   1.000
    C1515   C    0.06560   0.45883   0.61749   1.000
    C1516   C    0.07236   0.45146   0.63443   1.000
    C1517   C    0.08444   0.45772   0.64106   1.000
    C1518   C    0.93290   0.51722   0.59286   1.000
    C1519   C    0.91134   0.51708   0.61483   1.000
    C1520   C    0.92643   0.52356   0.60810   1.000
    C1521   C    0.93625   0.53900   0.61774   1.000
    C1522   C    0.92935   0.54627   0.63460   1.000
    C1523   C    0.91716   0.54006   0.64107   1.000
    C1524   C    0.98242   0.59209   0.56741   1.000
    C1525   C    0.98245   0.61366   0.58937   1.000
    C1526   C    0.97606   0.60725   0.57412   1.000
    C1527   C    0.96067   0.61724   0.56448   1.000
    C1528   C    0.95393   0.63423   0.57156   1.000
    C1529   C    0.96047   0.64038   0.58374   1.000
    C1530   C    0.01992   0.40707   0.56590   1.000
    C1531   C    0.02003   0.38503   0.58751   1.000
    C1532   C    0.02656   0.39194   0.57252   1.000
    C1533   C    0.04254   0.38263   0.56322   1.000
    C1534   C    0.05029   0.36633   0.57099   1.000
    C1535   C    0.04385   0.35999   0.58313   1.000
    C1536   C    0.09561   0.43332   0.51736   1.000
    C1537   C    0.11762   0.41167   0.51724   1.000
    C1538   C    0.11087   0.42676   0.52373   1.000
    C1539   C    0.12046   0.43632   0.53935   1.000
    C1540   C    0.13735   0.42923   0.54649   1.000
    C1541   C    0.14376   0.41713   0.54003   1.000
    C1542   C    0.90686   0.56769   0.51876   1.000
    C1543   C    0.88489   0.58937   0.51910   1.000
    C1544   C    0.89169   0.57415   0.52535   1.000
    C1545   C    0.88218   0.56410   0.54077   1.000
    C1546   C    0.86526   0.57088   0.54807   1.000
    C1547   C    0.85875   0.58323   0.54209   1.000
    C1548   C    0.00134   0.42161   0.57666   1.000
    C1549   C    0.00151   0.39505   0.60249   1.000
    C1550   C    0.00068   0.57696   0.57796   1.000
    C1551   C    0.00061   0.60287   0.60434   1.000
    C1552   C    0.92141   0.42174   0.49940   1.000
    C1553   C    0.89565   0.39525   0.49939   1.000
    C1554   C    0.08064   0.42255   0.49922   1.000
    C1555   C    0.10698   0.39648   0.49921   1.000
    C1556   C    0.92174   0.57850   0.50053   1.000
    C1557   C    0.89542   0.60458   0.50093   1.000
    C1558   C    0.07896   0.57826   0.50078   1.000
    C1559   C    0.10510   0.60442   0.50080   1.000
    C1560   C    0.92227   0.49904   0.57785   1.000
    C1561   C    0.89635   0.49887   0.60418   1.000
    C1562   C    0.07966   0.49935   0.57817   1.000
    C1563   C    0.10568   0.49918   0.60452   1.000
    C1564   C    0.04990   0.45057   0.60907   1.000
    C1565   C    0.04481   0.45594   0.59584   1.000
    C1566   C    0.06373   0.43595   0.64283   1.000
    C1567   C    0.95200   0.54733   0.60949   1.000
    C1568   C    0.95718   0.54207   0.59631   1.000
    C1569   C    0.93797   0.56169   0.64312   1.000
    C1570   C    0.89048   0.54822   0.54897   1.000
    C1571   C    0.90376   0.54318   0.54373   1.000
    C1572   C    0.85663   0.56186   0.56317   1.000
    C1573   C    0.11202   0.45167   0.54821   1.000
    C1574   C    0.09884   0.45703   0.54293   1.000
    C1575   C    0.14558   0.43700   0.56248   1.000
    C1576   C    0.05103   0.39068   0.54747   1.000
    C1577   C    0.04531   0.40345   0.54162   1.000
    C1578   C    0.06653   0.35826   0.56352   1.000
    C1579   C    0.95178   0.60922   0.54896   1.000
    C1580   C    0.95681   0.59599   0.54358   1.000
    C1581   C    0.93821   0.64294   0.56365   1.000
    C1582   C    0.95225   0.45027   0.60879   1.000
    C1583   C    0.95772   0.45625   0.59601   1.000
    C1584   C    0.93741   0.43396   0.64125   1.000
    C1585   C    0.04958   0.54736   0.60977   1.000
    C1586   C    0.04453   0.54213   0.59651   1.000
    C1587   C    0.06320   0.56168   0.64360   1.000
    C1588   C    0.95248   0.38991   0.54711   1.000
    C1589   C    0.95764   0.40310   0.54174   1.000
    C1590   C    0.93840   0.35635   0.56182   1.000
    C1591   C    0.04934   0.60924   0.54917   1.000
    C1592   C    0.04433   0.59602   0.54381   1.000
    C1593   C    0.06285   0.64298   0.56379   1.000
    C1594   C    0.89023   0.45038   0.54846   1.000
    C1595   C    0.90291   0.45609   0.54252   1.000
    C1596   C    0.85808   0.43493   0.56476   1.000
    C1597   C    0.11087   0.54846   0.54919   1.000
    C1598   C    0.09768   0.54323   0.54391   1.000
    C1599   C    0.14452   0.56264   0.56355   1.000
    C1600   C    0.48191   0.93304   0.40715   1.000
    C1601   C    0.48243   0.91129   0.38538   1.000
    C1602   C    0.47563   0.92631   0.39198   1.000
    C1603   C    0.45979   0.93560   0.38229   1.000
    C1604   C    0.45229   0.92781   0.36594   1.000
    C1605   C    0.45881   0.91559   0.35984   1.000
    C1606   C    0.51671   0.06723   0.40654   1.000
    C1607   C    0.51655   0.08930   0.38495   1.000
    C1608   C    0.52310   0.07407   0.39148   1.000
    C1609   C    0.53879   0.06460   0.38189   1.000
    C1610   C    0.54585   0.07175   0.36505   1.000
    C1611   C    0.53933   0.08390   0.35869   1.000
    C1612   C    0.40611   0.98125   0.43179   1.000
    C1613   C    0.38428   0.98101   0.41000   1.000
    C1614   C    0.39103   0.97462   0.42516   1.000
    C1615   C    0.38171   0.95884   0.43481   1.000
    C1616   C    0.36542   0.95081   0.42734   1.000
    C1617   C    0.35923   0.95659   0.41475   1.000
    C1618   C    0.59296   0.01997   0.43307   1.000
    C1619   C    0.61488   0.02014   0.41146   1.000
    C1620   C    0.60809   0.02655   0.42654   1.000
    C1621   C    0.61745   0.04224   0.43627   1.000
    C1622   C    0.63377   0.05032   0.42891   1.000
    C1623   C    0.63992   0.04465   0.41633   1.000
    C1624   C    0.43278   0.90631   0.48127   1.000
    C1625   C    0.41118   0.88436   0.48123   1.000
    C1626   C    0.42627   0.89113   0.47478   1.000
    C1627   C    0.43604   0.88176   0.45911   1.000
    C1628   C    0.42871   0.86548   0.45088   1.000
    C1629   C    0.41610   0.85922   0.45643   1.000
    C1630   C    0.56563   0.09280   0.48268   1.000
    C1631   C    0.58686   0.11511   0.48290   1.000
    C1632   C    0.57197   0.10808   0.47624   1.000
    C1633   C    0.56251   0.11741   0.46030   1.000
    C1634   C    0.57026   0.13364   0.45252   1.000
    C1635   C    0.58246   0.13991   0.45893   1.000
    C1636   C    0.43133   0.01810   0.40635   1.000
    C1637   C    0.40959   0.01786   0.38448   1.000
    C1638   C    0.42462   0.02451   0.39119   1.000
    C1639   C    0.43396   0.04036   0.38167   1.000
    C1640   C    0.42616   0.04813   0.36541   1.000
    C1641   C    0.41388   0.04179   0.35923   1.000
    C1642   C    0.56780   0.98319   0.40765   1.000
    C1643   C    0.58962   0.98323   0.38594   1.000
    C1644   C    0.57447   0.97676   0.39254   1.000
    C1645   C    0.56472   0.96129   0.38287   1.000
    C1646   C    0.57162   0.95415   0.36596   1.000
    C1647   C    0.58379   0.96043   0.35952   1.000
    C1648   C    0.51888   0.90779   0.43279   1.000
    C1649   C    0.51946   0.88608   0.41098   1.000
    C1650   C    0.52569   0.89276   0.42618   1.000
    C1651   C    0.54143   0.88338   0.43596   1.000
    C1652   C    0.54960   0.86705   0.42864   1.000
    C1653   C    0.54397   0.86079   0.41607   1.000
    C1654   C    0.48026   0.09235   0.43241   1.000
    C1655   C    0.48006   0.11458   0.41099   1.000
    C1656   C    0.47372   0.10762   0.42605   1.000
    C1657   C    0.45810   0.11693   0.43590   1.000
    C1658   C    0.45016   0.13347   0.42873   1.000
    C1659   C    0.45589   0.13984   0.41625   1.000
    C1660   C    0.40536   0.06583   0.48159   1.000
    C1661   C    0.38349   0.08763   0.48164   1.000
    C1662   C    0.39021   0.07258   0.47508   1.000
    C1663   C    0.38068   0.06333   0.45921   1.000
    C1664   C    0.36444   0.07124   0.45144   1.000
    C1665   C    0.35825   0.08349   0.45784   1.000
    C1666   C    0.59307   0.93410   0.48298   1.000
    C1667   C    0.61525   0.91261   0.48317   1.000
    C1668   C    0.60842   0.92773   0.47673   1.000
    C1669   C    0.61811   0.93762   0.46135   1.000
    C1670   C    0.63503   0.93061   0.45433   1.000
    C1671   C    0.64132   0.91830   0.46062   1.000
    C1672   C    0.48015   0.06754   0.40617   1.000
    C1673   C    0.47991   0.08968   0.38468   1.000
    C1674   C    0.47353   0.07441   0.39114   1.000
    C1675   C    0.45783   0.06483   0.38156   1.000
    C1676   C    0.44976   0.07243   0.36524   1.000
    C1677   C    0.45544   0.08510   0.35919   1.000
    C1678   C    0.51847   0.93385   0.40754   1.000
    C1679   C    0.51890   0.91216   0.38572   1.000
    C1680   C    0.52503   0.92741   0.39239   1.000
    C1681   C    0.54037   0.93736   0.38275   1.000
    C1682   C    0.54736   0.93055   0.36578   1.000
    C1683   C    0.54109   0.91834   0.35944   1.000
    C1684   C    0.59317   0.98345   0.43344   1.000
    C1685   C    0.61511   0.98347   0.41185   1.000
    C1686   C    0.60842   0.97705   0.42699   1.000
    C1687   C    0.61809   0.96159   0.43692   1.000
    C1688   C    0.63495   0.95425   0.43001   1.000
    C1689   C    0.64139   0.96044   0.41780   1.000
    C1690   C    0.40549   0.01776   0.43157   1.000
    C1691   C    0.38369   0.01766   0.40976   1.000
    C1692   C    0.39028   0.02414   0.42491   1.000
    C1693   C    0.38063   0.03972   0.43458   1.000
    C1694   C    0.36436   0.04788   0.42699   1.000
    C1695   C    0.35840   0.04236   0.41423   1.000
    C1696   C    0.43126   0.09117   0.48199   1.000
    C1697   C    0.40930   0.11288   0.48193   1.000
    C1698   C    0.42455   0.10635   0.47559   1.000
    C1699   C    0.43411   0.11621   0.46014   1.000
    C1700   C    0.42642   0.13272   0.45278   1.000
    C1701   C    0.41410   0.13880   0.45914   1.000
    C1702   C    0.56762   0.90844   0.48266   1.000
    C1703   C    0.58979   0.88694   0.48274   1.000
    C1704   C    0.57457   0.89346   0.47619   1.000
    C1705   C    0.56529   0.88385   0.46045   1.000
    C1706   C    0.57323   0.86761   0.45293   1.000
    C1707   C    0.58558   0.86154   0.45934   1.000
    C1708   C    0.56739   0.01962   0.40741   1.000
    C1709   C    0.58921   0.01976   0.38570   1.000
    C1710   C    0.57391   0.02602   0.39220   1.000
    C1711   C    0.56381   0.04124   0.38232   1.000
    C1712   C    0.57072   0.04864   0.36550   1.000
    C1713   C    0.58312   0.04265   0.35923   1.000
    C1714   C    0.43168   0.98154   0.40631   1.000
    C1715   C    0.40994   0.98120   0.38443   1.000
    C1716   C    0.42517   0.97493   0.39119   1.000
    C1717   C    0.43509   0.95934   0.38182   1.000
    C1718   C    0.42779   0.95129   0.36547   1.000
    C1719   C    0.41511   0.95690   0.35931   1.000
    C1720   C    0.51677   0.09262   0.43220   1.000
    C1721   C    0.51669   0.11476   0.41070   1.000
    C1722   C    0.52320   0.10788   0.42576   1.000
    C1723   C    0.53884   0.11736   0.43555   1.000
    C1724   C    0.54692   0.13362   0.42797   1.000
    C1725   C    0.54136   0.13960   0.41519   1.000
    C1726   C    0.48232   0.90753   0.43285   1.000
    C1727   C    0.48292   0.88580   0.41106   1.000
    C1728   C    0.47620   0.89231   0.42612   1.000
    C1729   C    0.46057   0.88245   0.43539   1.000
    C1730   C    0.45310   0.86621   0.42744   1.000
    C1731   C    0.45959   0.86024   0.41516   1.000
    C1732   C    0.59217   0.06819   0.48282   1.000
    C1733   C    0.61340   0.09051   0.48303   1.000
    C1734   C    0.60715   0.07527   0.47644   1.000
    C1735   C    0.61696   0.06608   0.46070   1.000
    C1736   C    0.63324   0.07398   0.45310   1.000
    C1737   C    0.63926   0.08631   0.45946   1.000
    C1738   C    0.40717   0.93198   0.48112   1.000
    C1739   C    0.38554   0.91004   0.48125   1.000
    C1740   C    0.39204   0.92523   0.47472   1.000
    C1741   C    0.38228   0.93470   0.45905   1.000
    C1742   C    0.36600   0.92690   0.45138   1.000
    C1743   C    0.35998   0.91450   0.45765   1.000
    C1744   C    0.50037   0.92273   0.42229   1.000
    C1745   C    0.50100   0.89666   0.39610   1.000
    C1746   C    0.49847   0.07771   0.42146   1.000
    C1747   C    0.49830   0.10431   0.39568   1.000
    C1748   C    0.42082   0.99969   0.42119   1.000
    C1749   C    0.39470   0.99941   0.39496   1.000
    C1750   C    0.57816   0.00156   0.42257   1.000
    C1751   C    0.60443   0.00166   0.39658   1.000
    C1752   C    0.45120   0.95147   0.39002   1.000
    C1753   C    0.45671   0.95734   0.40282   1.000
    C1754   C    0.43621   0.93542   0.35753   1.000
    C1755   C    0.54773   0.04921   0.39029   1.000
    C1756   C    0.54253   0.04382   0.40344   1.000
    C1757   C    0.56182   0.06391   0.35679   1.000
    C1758   C    0.38993   0.95078   0.45078   1.000
    C1759   C    0.40269   0.95666   0.45641   1.000
    C1760   C    0.35757   0.93474   0.43545   1.000
    C1761   C    0.60929   0.05011   0.45227   1.000
    C1762   C    0.59655   0.04416   0.45783   1.000
    C1763   C    0.64169   0.06627   0.43716   1.000
    C1764   C    0.45207   0.89002   0.45132   1.000
    C1765   C    0.45760   0.90277   0.45730   1.000
    C1766   C    0.43709   0.85774   0.43490   1.000
    C1767   C    0.54669   0.10941   0.45181   1.000
    C1768   C    0.54085   0.09667   0.45753   1.000
    C1769   C    0.56277   0.14169   0.43627   1.000
    C1770   C    0.44989   0.04871   0.38954   1.000
    C1771   C    0.45577   0.04297   0.40228   1.000
    C1772   C    0.43381   0.06423   0.35719   1.000
    C1773   C    0.54899   0.95288   0.39108   1.000
    C1774   C    0.54380   0.95803   0.40430   1.000
    C1775   C    0.56300   0.93879   0.35734   1.000
    C1776   C    0.54930   0.89156   0.45199   1.000
    C1777   C    0.54333   0.90432   0.45753   1.000
    C1778   C    0.56562   0.85923   0.43697   1.000
    C1779   C    0.45006   0.10850   0.45173   1.000
    C1780   C    0.45584   0.09554   0.45712   1.000
    C1781   C    0.43420   0.14131   0.43700   1.000
    C1782   C    0.38856   0.04747   0.45079   1.000
    C1783   C    0.40129   0.04153   0.45653   1.000
    C1784   C    0.35629   0.06378   0.43525   1.000
    C1785   C    0.60986   0.95326   0.45270   1.000
    C1786   C    0.59665   0.95856   0.45787   1.000
    C1787   C    0.64347   0.93874   0.43863   1.000
    C1788   C    0.51812   0.93232   0.59364   1.000
    C1789   C    0.51848   0.91035   0.61531   1.000
    C1790   C    0.52469   0.92565   0.60876   1.000
    C1791   C    0.54016   0.93550   0.61839   1.000
    C1792   C    0.54824   0.92802   0.63472   1.000
    C1793   C    0.54274   0.91526   0.64076   1.000
    C1794   C    0.47976   0.06702   0.59503   1.000
    C1795   C    0.47943   0.08901   0.61655   1.000
    C1796   C    0.47325   0.07367   0.61011   1.000
    C1797   C    0.45790   0.06369   0.61978   1.000
    C1798   C    0.45035   0.07053   0.63655   1.000
    C1799   C    0.45637   0.08280   0.64304   1.000
    C1800   C    0.40631   0.01747   0.56866   1.000
    C1801   C    0.38426   0.01707   0.59014   1.000
    C1802   C    0.39098   0.02369   0.57511   1.000
    C1803   C    0.38126   0.03917   0.56531   1.000
    C1804   C    0.36497   0.04718   0.57284   1.000
    C1805   C    0.35912   0.04163   0.58564   1.000
    C1806   C    0.59166   0.98310   0.56840   1.000
    C1807   C    0.61341   0.98307   0.59029   1.000
    C1808   C    0.60684   0.97671   0.57511   1.000
    C1809   C    0.61664   0.96123   0.56561   1.000
    C1810   C    0.63305   0.95373   0.57335   1.000
    C1811   C    0.63913   0.96003   0.58569   1.000
    C1812   C    0.56784   0.90765   0.51912   1.000
    C1813   C    0.58995   0.88610   0.51919   1.000
    C1814   C    0.57466   0.89250   0.52553   1.000
    C1815   C    0.56505   0.88266   0.54098   1.000
    C1816   C    0.57258   0.86615   0.54868   1.000
    C1817   C    0.58520   0.86015   0.54286   1.000
    C1818   C    0.43077   0.09121   0.51853   1.000
    C1819   C    0.40882   0.11293   0.51826   1.000
    C1820   C    0.42394   0.10633   0.52489   1.000
    C1821   C    0.43318   0.11605   0.54063   1.000
    C1822   C    0.42535   0.13252   0.54782   1.000
    C1823   C    0.41317   0.13863   0.54114   1.000
    C1824   C    0.43196   0.98087   0.59417   1.000
    C1825   C    0.40987   0.98017   0.61560   1.000
    C1826   C    0.42521   0.97404   0.60910   1.000
    C1827   C    0.43501   0.95837   0.61853   1.000
    C1828   C    0.42771   0.95027   0.63488   1.000
    C1829   C    0.41510   0.95591   0.64108   1.000
    C1830   C    0.56588   0.01940   0.59400   1.000
    C1831   C    0.58776   0.01929   0.61575   1.000
    C1832   C    0.57258   0.02577   0.60914   1.000
    C1833   C    0.56310   0.04136   0.61880   1.000
    C1834   C    0.57111   0.04915   0.63485   1.000
    C1835   C    0.58365   0.04298   0.64077   1.000
    C1836   C    0.48191   0.90667   0.56780   1.000
    C1837   C    0.48204   0.88469   0.58947   1.000
    C1838   C    0.47554   0.89144   0.57435   1.000
    C1839   C    0.45994   0.88189   0.56462   1.000
    C1840   C    0.45197   0.86558   0.57220   1.000
    C1841   C    0.45767   0.85956   0.58490   1.000
    C1842   C    0.51566   0.09249   0.56863   1.000
    C1843   C    0.51534   0.11468   0.58996   1.000
    C1844   C    0.52185   0.10787   0.57492   1.000
    C1845   C    0.53722   0.11760   0.56504   1.000
    C1846   C    0.54419   0.13455   0.57198   1.000
    C1847   C    0.53789   0.14082   0.58420   1.000
    C1848   C    0.40727   0.93203   0.51763   1.000
    C1849   C    0.38557   0.91017   0.51775   1.000
    C1850   C    0.39215   0.92539   0.52411   1.000
    C1851   C    0.38247   0.93516   0.53957   1.000
    C1852   C    0.36545   0.92832   0.54657   1.000
    C1853   C    0.35895   0.91623   0.54021   1.000
    C1854   C    0.59213   0.06811   0.51934   1.000
    C1855   C    0.61340   0.09039   0.51954   1.000
    C1856   C    0.60713   0.07503   0.52587   1.000
    C1857   C    0.61694   0.06535   0.54138   1.000
    C1858   C    0.63396   0.07216   0.54849   1.000
    C1859   C    0.64049   0.08420   0.54205   1.000
    C1860   C    0.51625   0.06787   0.59511   1.000
    C1861   C    0.51613   0.08993   0.61656   1.000
    C1862   C    0.52280   0.07481   0.61007   1.000
    C1863   C    0.53880   0.06545   0.61944   1.000
    C1864   C    0.54708   0.07310   0.63557   1.000
    C1865   C    0.54131   0.08565   0.64177   1.000
    C1866   C    0.48163   0.93213   0.59339   1.000
    C1867   C    0.48198   0.91017   0.61508   1.000
    C1868   C    0.47532   0.92530   0.60850   1.000
    C1869   C    0.45960   0.93459   0.61815   1.000
    C1870   C    0.45212   0.92672   0.63444   1.000
    C1871   C    0.45858   0.91441   0.64055   1.000
    C1872   C    0.59178   0.01953   0.56870   1.000
    C1873   C    0.61361   0.01937   0.59050   1.000
    C1874   C    0.60702   0.02582   0.57531   1.000
    C1875   C    0.61685   0.04115   0.56552   1.000
    C1876   C    0.63389   0.04804   0.57237   1.000
    C1877   C    0.64015   0.04172   0.58466   1.000
    C1878   C    0.40725   0.98108   0.56770   1.000
    C1879   C    0.38507   0.98063   0.58905   1.000
    C1880   C    0.39198   0.97453   0.57389   1.000
    C1881   C    0.38239   0.95930   0.56372   1.000
    C1882   C    0.36529   0.95239   0.57031   1.000
    C1883   C    0.35886   0.95862   0.58249   1.000
    C1884   C    0.56554   0.09288   0.51926   1.000
    C1885   C    0.58678   0.11519   0.51945   1.000
    C1886   C    0.57173   0.10819   0.52576   1.000
    C1887   C    0.56168   0.11767   0.54118   1.000
    C1888   C    0.56850   0.13457   0.54848   1.000
    C1889   C    0.58069   0.14109   0.54233   1.000
    C1890   C    0.43310   0.90664   0.51781   1.000
    C1891   C    0.41145   0.88473   0.51783   1.000
    C1892   C    0.42653   0.89148   0.52433   1.000
    C1893   C    0.43604   0.88198   0.54014   1.000
    C1894   C    0.42833   0.86571   0.54792   1.000
    C1895   C    0.41604   0.85951   0.54162   1.000
    C1896   C    0.56613   0.98278   0.59389   1.000
    C1897   C    0.58793   0.98279   0.61572   1.000
    C1898   C    0.57287   0.97623   0.60898   1.000
    C1899   C    0.56362   0.96032   0.61841   1.000
    C1900   C    0.57148   0.95262   0.63467   1.000
    C1901   C    0.58368   0.95906   0.64091   1.000
    C1902   C    0.43179   0.01739   0.59442   1.000
    C1903   C    0.40979   0.01676   0.61594   1.000
    C1904   C    0.42493   0.02348   0.60958   1.000
    C1905   C    0.43433   0.03898   0.61953   1.000
    C1906   C    0.42706   0.04592   0.63635   1.000
    C1907   C    0.41481   0.03945   0.64243   1.000
    C1908   C    0.47920   0.09231   0.56909   1.000
    C1909   C    0.47873   0.11442   0.59049   1.000
    C1910   C    0.47245   0.10746   0.57542   1.000
    C1911   C    0.45676   0.11668   0.56541   1.000
    C1912   C    0.44864   0.13317   0.57241   1.000
    C1913   C    0.45418   0.13951   0.58498   1.000
    C1914   C    0.51843   0.90704   0.56783   1.000
    C1915   C    0.51859   0.88503   0.58948   1.000
    C1916   C    0.52500   0.89186   0.57441   1.000
    C1917   C    0.54072   0.88244   0.56487   1.000
    C1918   C    0.54842   0.86597   0.57235   1.000
    C1919   C    0.54212   0.85957   0.58453   1.000
    C1920   C    0.59275   0.93386   0.51940   1.000
    C1921   C    0.61488   0.91232   0.51958   1.000
    C1922   C    0.60795   0.92737   0.52596   1.000
    C1923   C    0.61727   0.93706   0.54162   1.000
    C1924   C    0.63370   0.92972   0.54959   1.000
    C1925   C    0.64000   0.91720   0.54385   1.000
    C1926   C    0.40549   0.06537   0.51823   1.000
    C1927   C    0.38363   0.08718   0.51811   1.000
    C1928   C    0.39035   0.07207   0.52466   1.000
    C1929   C    0.38093   0.06271   0.54049   1.000
    C1930   C    0.36468   0.07048   0.54821   1.000
    C1931   C    0.35834   0.08268   0.54177   1.000
    C1932   C    0.50002   0.92175   0.57848   1.000
    C1933   C    0.50030   0.89534   0.60451   1.000
    C1934   C    0.49772   0.07768   0.57987   1.000
    C1935   C    0.49737   0.10424   0.60553   1.000
    C1936   C    0.42226   0.92142   0.49943   1.000
    C1937   C    0.39627   0.89512   0.49955   1.000
    C1938   C    0.57809   0.92317   0.50106   1.000
    C1939   C    0.60469   0.89732   0.50115   1.000
    C1940   C    0.42040   0.07617   0.50008   1.000
    C1941   C    0.39411   0.10232   0.49995   1.000
    C1942   C    0.57676   0.07823   0.50106   1.000
    C1943   C    0.60220   0.10507   0.50127   1.000
    C1944   C    0.42157   0.99928   0.57912   1.000
    C1945   C    0.39503   0.99858   0.60484   1.000
    C1946   C    0.57663   0.00125   0.57906   1.000
    C1947   C    0.60283   0.00114   0.60531   1.000
    C1948   C    0.54786   0.95177   0.61045   1.000
    C1949   C    0.54197   0.95743   0.59768   1.000
    C1950   C    0.56403   0.93642   0.64280   1.000
    C1951   C    0.44989   0.04781   0.61152   1.000
    C1952   C    0.45538   0.04267   0.59841   1.000
    C1953   C    0.43494   0.06169   0.64495   1.000
    C1954   C    0.38902   0.04694   0.54903   1.000
    C1955   C    0.40178   0.04109   0.54335   1.000
    C1956   C    0.35671   0.06295   0.56446   1.000
    C1957   C    0.60893   0.95293   0.54963   1.000
    C1958   C    0.59606   0.95846   0.54381   1.000
    C1959   C    0.64155   0.93789   0.56557   1.000
    C1960   C    0.54901   0.89058   0.54908   1.000
    C1961   C    0.54333   0.90348   0.54347   1.000
    C1962   C    0.56442   0.85782   0.56447   1.000
    C1963   C    0.44899   0.10831   0.54941   1.000
    C1964   C    0.45492   0.09543   0.54410   1.000
    C1965   C    0.43283   0.14108   0.56376   1.000
    C1966   C    0.45107   0.95052   0.61039   1.000
    C1967   C    0.45659   0.95644   0.59760   1.000
    C1968   C    0.43611   0.93433   0.64280   1.000
    C1969   C    0.54686   0.04948   0.61130   1.000
    C1970   C    0.54084   0.04369   0.59869   1.000
    C1971   C    0.56338   0.06509   0.64321   1.000
    C1972   C    0.45195   0.88989   0.54849   1.000
    C1973   C    0.45775   0.90266   0.54277   1.000
    C1974   C    0.43605   0.85754   0.56403   1.000
    C1975   C    0.54594   0.10935   0.54949   1.000
    C1976   C    0.54083   0.09612   0.54423   1.000
    C1977   C    0.55988   0.14304   0.56389   1.000
    C1978   C    0.39077   0.95076   0.54818   1.000
    C1979   C    0.40410   0.95588   0.54316   1.000
    C1980   C    0.35680   0.93690   0.56191   1.000
    C1981   C    0.60863   0.04974   0.54989   1.000
    C1982   C    0.59536   0.04462   0.54471   1.000
    C1983   C    0.64256   0.06353   0.56398   1.000
    C1984   C    0.48198   0.43345   0.90712   1.000
    C1985   C    0.48139   0.41146   0.88560   1.000
    C1986   C    0.47530   0.42683   0.89209   1.000
    C1987   C    0.45982   0.43679   0.88253   1.000
    C1988   C    0.45244   0.43000   0.86568   1.000
    C1989   C    0.45872   0.41791   0.85908   1.000
    C1990   C    0.51987   0.56700   0.90551   1.000
    C1991   C    0.52001   0.58869   0.88356   1.000
    C1992   C    0.52640   0.57353   0.89035   1.000
    C1993   C    0.54209   0.56377   0.88100   1.000
    C1994   C    0.55027   0.57124   0.86477   1.000
    C1995   C    0.54463   0.58391   0.85860   1.000
    C1996   C    0.40723   0.48284   0.93359   1.000
    C1997   C    0.38512   0.48315   0.91208   1.000
    C1998   C    0.39187   0.47662   0.92718   1.000
    C1999   C    0.38209   0.46126   0.93708   1.000
    C2000   C    0.36531   0.45395   0.92998   1.000
    C2001   C    0.35919   0.45995   0.91747   1.000
    C2002   C    0.59358   0.51765   0.93274   1.000
    C2003   C    0.61577   0.51722   0.91141   1.000
    C2004   C    0.60884   0.52399   0.92627   1.000
    C2005   C    0.61821   0.53985   0.93572   1.000
    C2006   C    0.63438   0.54797   0.92803   1.000
    C2007   C    0.64037   0.54225   0.91539   1.000
    C2008   C    0.43250   0.40918   0.98375   1.000
    C2009   C    0.41079   0.38734   0.98402   1.000
    C2010   C    0.42587   0.39399   0.97740   1.000
    C2011   C    0.43536   0.38428   0.96174   1.000
    C2012   C    0.42807   0.36746   0.95476   1.000
    C2013   C    0.41584   0.36132   0.96121   1.000
    C2014   C    0.56789   0.59284   0.98202   1.000
    C2015   C    0.58982   0.61447   0.98166   1.000
    C2016   C    0.57463   0.60785   0.97532   1.000
    C2017   C    0.56523   0.61729   0.95946   1.000
    C2018   C    0.57283   0.63370   0.95189   1.000
    C2019   C    0.58491   0.64008   0.95842   1.000
    C2020   C    0.43293   0.51902   0.90757   1.000
    C2021   C    0.41082   0.51932   0.88605   1.000
    C2022   C    0.42620   0.52548   0.89241   1.000
    C2023   C    0.43613   0.54062   0.88238   1.000
    C2024   C    0.42909   0.54770   0.86545   1.000
    C2025   C    0.41674   0.54150   0.85925   1.000
    C2026   C    0.56809   0.48093   0.90735   1.000
    C2027   C    0.59027   0.48046   0.88601   1.000
    C2028   C    0.57494   0.47422   0.89244   1.000
    C2029   C    0.56539   0.45854   0.88288   1.000
    C2030   C    0.57313   0.45065   0.86673   1.000
    C2031   C    0.58558   0.45676   0.86067   1.000
    C2032   C    0.51783   0.40723   0.93304   1.000
    C2033   C    0.51739   0.38514   0.91162   1.000
    C2034   C    0.52396   0.39184   0.92668   1.000
    C2035   C    0.53936   0.38207   0.93655   1.000
    C2036   C    0.54740   0.36579   0.92901   1.000
    C2037   C    0.54188   0.35994   0.91621   1.000
    C2038   C    0.48366   0.59295   0.93111   1.000
    C2039   C    0.48377   0.61467   0.90918   1.000
    C2040   C    0.47744   0.60824   0.92446   1.000
    C2041   C    0.46233   0.61837   0.93433   1.000
    C2042   C    0.45528   0.63525   0.92710   1.000
    C2043   C    0.46126   0.64114   0.91450   1.000
    C2044   C    0.40988   0.56971   0.98215   1.000
    C2045   C    0.38825   0.59174   0.98181   1.000
    C2046   C    0.39466   0.57634   0.97574   1.000
    C2047   C    0.38457   0.56635   0.96073   1.000
    C2048   C    0.36753   0.57338   0.95388   1.000
    C2049   C    0.36152   0.58588   0.95995   1.000
    C2050   C    0.59175   0.43180   0.98320   1.000
    C2051   C    0.61324   0.40962   0.98330   1.000
    C2052   C    0.60681   0.42490   0.97681   1.000
    C2053   C    0.61667   0.43433   0.96125   1.000
    C2054   C    0.63306   0.42646   0.95389   1.000
    C2055   C    0.63901   0.41406   0.96029   1.000
    C2056   C    0.48328   0.56699   0.90599   1.000
    C2057   C    0.48333   0.58863   0.88399   1.000
    C2058   C    0.47677   0.57359   0.89084   1.000
    C2059   C    0.46098   0.56404   0.88151   1.000
    C2060   C    0.45374   0.57089   0.86457   1.000
    C2061   C    0.46015   0.58292   0.85797   1.000
    C2062   C    0.51855   0.43239   0.90701   1.000
    C2063   C    0.51810   0.41038   0.88552   1.000
    C2064   C    0.52494   0.42542   0.89201   1.000
    C2065   C    0.54095   0.43463   0.88252   1.000
    C2066   C    0.54896   0.42691   0.86630   1.000
    C2067   C    0.54301   0.41442   0.86019   1.000
    C2068   C    0.59325   0.48100   0.93337   1.000
    C2069   C    0.61547   0.48053   0.91207   1.000
    C2070   C    0.60844   0.47427   0.92712   1.000
    C2071   C    0.61759   0.45848   0.93703   1.000
    C2072   C    0.63398   0.45034   0.92986   1.000
    C2073   C    0.64034   0.45607   0.91738   1.000
    C2074   C    0.40806   0.51940   0.93376   1.000
    C2075   C    0.38590   0.51974   0.91229   1.000
    C2076   C    0.39290   0.52608   0.92732   1.000
    C2077   C    0.38367   0.54182   0.93706   1.000
    C2078   C    0.36669   0.54912   0.93035   1.000
    C2079   C    0.35981   0.54264   0.91854   1.000
    C2080   C    0.43573   0.59508   0.98161   1.000
    C2081   C    0.41411   0.61711   0.98122   1.000
    C2082   C    0.42916   0.61017   0.97484   1.000
    C2083   C    0.43873   0.61935   0.95895   1.000
    C2084   C    0.43180   0.63617   0.95142   1.000
    C2085   C    0.41990   0.64299   0.95783   1.000
    C2086   C    0.56591   0.40649   0.98342   1.000
    C2087   C    0.58747   0.38439   0.98351   1.000
    C2088   C    0.57242   0.39127   0.97701   1.000
    C2089   C    0.56296   0.38185   0.96126   1.000
    C2090   C    0.57075   0.36560   0.95356   1.000
    C2091   C    0.58298   0.35930   0.95996   1.000
    C2092   C    0.56842   0.51746   0.90672   1.000
    C2093   C    0.59059   0.51701   0.88537   1.000
    C2094   C    0.57538   0.52368   0.89163   1.000
    C2095   C    0.56607   0.53936   0.88170   1.000
    C2096   C    0.57405   0.54702   0.86551   1.000
    C2097   C    0.58648   0.54070   0.85962   1.000
    C2098   C    0.43280   0.48263   0.90796   1.000
    C2099   C    0.41074   0.48292   0.88638   1.000
    C2100   C    0.42601   0.47639   0.89282   1.000
    C2101   C    0.43569   0.46105   0.88292   1.000
    C2102   C    0.42858   0.45414   0.86602   1.000
    C2103   C    0.41621   0.46045   0.85989   1.000
    C2104   C    0.51998   0.59231   0.93127   1.000
    C2105   C    0.52016   0.61407   0.90939   1.000
    C2106   C    0.52646   0.60745   0.92465   1.000
    C2107   C    0.54183   0.61709   0.93455   1.000
    C2108   C    0.54965   0.63353   0.92718   1.000
    C2109   C    0.54408   0.63954   0.91442   1.000
    C2110   C    0.48138   0.40836   0.93323   1.000
    C2111   C    0.48078   0.38624   0.91184   1.000
    C2112   C    0.47457   0.39324   0.92693   1.000
    C2113   C    0.45895   0.38399   0.93697   1.000
    C2114   C    0.45132   0.36722   0.93019   1.000
    C2115   C    0.45731   0.36064   0.91797   1.000
    C2116   C    0.59333   0.56707   0.98208   1.000
    C2117   C    0.61520   0.58877   0.98172   1.000
    C2118   C    0.60845   0.57361   0.97547   1.000
    C2119   C    0.61794   0.56399   0.95984   1.000
    C2120   C    0.63415   0.57174   0.95204   1.000
    C2121   C    0.64030   0.58407   0.95829   1.000
    C2122   C    0.40662   0.43454   0.98376   1.000
    C2123   C    0.38486   0.41274   0.98398   1.000
    C2124   C    0.39147   0.42784   0.97736   1.000
    C2125   C    0.38188   0.43738   0.96160   1.000
    C2126   C    0.36514   0.43021   0.95422   1.000
    C2127   C    0.35865   0.41815   0.96069   1.000
    C2128   C    0.50000   0.42259   0.92220   1.000
    C2129   C    0.49932   0.39609   0.89649   1.000
    C2130   C    0.50169   0.57758   0.92062   1.000
    C2131   C    0.50181   0.60366   0.89428   1.000
    C2132   C    0.42245   0.50092   0.92290   1.000
    C2133   C    0.39589   0.50130   0.89707   1.000
    C2134   C    0.57864   0.49932   0.92220   1.000
    C2135   C    0.60526   0.49874   0.89659   1.000
    C2136   C    0.45146   0.45243   0.89094   1.000
    C2137   C    0.45683   0.45751   0.90413   1.000
    C2138   C    0.43680   0.43858   0.85738   1.000
    C2139   C    0.54999   0.54771   0.88921   1.000
    C2140   C    0.54399   0.54209   0.90191   1.000
    C2141   C    0.56636   0.56305   0.85703   1.000
    C2142   C    0.39014   0.45300   0.95301   1.000
    C2143   C    0.40322   0.45838   0.95840   1.000
    C2144   C    0.35676   0.43839   0.93840   1.000
    C2145   C    0.61016   0.54793   0.95170   1.000
    C2146   C    0.59746   0.54207   0.95747   1.000
    C2147   C    0.64233   0.56405   0.93602   1.000
    C2148   C    0.45093   0.39235   0.95285   1.000
    C2149   C    0.45648   0.40546   0.95798   1.000
    C2150   C    0.43588   0.35889   0.93897   1.000
    C2151   C    0.54961   0.60917   0.95081   1.000
    C2152   C    0.54390   0.59630   0.95639   1.000
    C2153   C    0.56526   0.64180   0.93569   1.000
    C2154   C    0.45218   0.54877   0.89020   1.000
    C2155   C    0.45750   0.54359   0.90342   1.000
    C2156   C    0.43778   0.56285   0.85647   1.000
    C2157   C    0.54921   0.45053   0.89056   1.000
    C2158   C    0.54338   0.45637   0.90322   1.000
    C2159   C    0.56518   0.43476   0.85842   1.000
    C2160   C    0.54715   0.38989   0.95279   1.000
    C2161   C    0.54131   0.40265   0.95846   1.000
    C2162   C    0.56324   0.35762   0.93735   1.000
    C2163   C    0.45411   0.61064   0.95039   1.000
    C2164   C    0.45931   0.59748   0.95588   1.000
    C2165   C    0.43998   0.64419   0.93549   1.000
    C2166   C    0.39243   0.55043   0.95236   1.000
    C2167   C    0.40572   0.54512   0.95738   1.000
    C2168   C    0.35857   0.56493   0.93865   1.000
    C2169   C    0.60912   0.45044   0.95284   1.000
    C2170   C    0.59628   0.45638   0.95823   1.000
    C2171   C    0.64170   0.43424   0.93812   1.000
    C2172   C    0.51906   0.43402   0.09549   1.000
    C2173   C    0.51890   0.41241   0.11752   1.000
    C2174   C    0.52561   0.42735   0.11061   1.000
    C2175   C    0.54168   0.43673   0.11973   1.000
    C2176   C    0.54978   0.42930   0.13609   1.000
    C2177   C    0.54383   0.41696   0.14255   1.000
    C2178   C    0.48338   0.56933   0.09389   1.000
    C2179   C    0.48396   0.59094   0.11580   1.000
    C2180   C    0.47720   0.57595   0.10913   1.000
    C2181   C    0.46155   0.56648   0.11884   1.000
    C2182   C    0.45456   0.57364   0.13569   1.000
    C2183   C    0.46105   0.58581   0.14191   1.000
    C2184   C    0.40833   0.52078   0.06800   1.000
    C2185   C    0.38644   0.52151   0.08962   1.000
    C2186   C    0.39328   0.52764   0.07443   1.000
    C2187   C    0.38410   0.54339   0.06450   1.000
    C2188   C    0.36759   0.55140   0.07152   1.000
    C2189   C    0.36112   0.54562   0.08392   1.000
    C2190   C    0.59471   0.48149   0.06764   1.000
    C2191   C    0.61672   0.48138   0.08925   1.000
    C2192   C    0.60981   0.47484   0.07427   1.000
    C2193   C    0.61889   0.45882   0.06484   1.000
    C2194   C    0.63526   0.45061   0.07215   1.000
    C2195   C    0.64184   0.45649   0.08444   1.000
    C2196   C    0.56618   0.40656   0.02003   1.000
    C2197   C    0.58765   0.38438   0.01996   1.000
    C2198   C    0.57267   0.39130   0.02650   1.000
    C2199   C    0.56312   0.38186   0.04225   1.000
    C2200   C    0.56996   0.36482   0.04930   1.000
    C2201   C    0.58191   0.35824   0.04275   1.000
    C2202   C    0.43563   0.59566   0.01829   1.000
    C2203   C    0.41396   0.61766   0.01785   1.000
    C2204   C    0.42896   0.61088   0.02459   1.000
    C2205   C    0.43821   0.62029   0.04052   1.000
    C2206   C    0.43020   0.63632   0.04850   1.000
    C2207   C    0.41790   0.64255   0.04218   1.000
    C2208   C    0.43351   0.48430   0.09421   1.000
    C2209   C    0.41166   0.48489   0.11587   1.000
    C2210   C    0.42681   0.47818   0.10944   1.000
    C2211   C    0.43635   0.46270   0.11944   1.000
    C2212   C    0.42895   0.45574   0.13619   1.000
    C2213   C    0.41656   0.46214   0.14210   1.000
    C2214   C    0.56919   0.51844   0.09245   1.000
    C2215   C    0.59116   0.51843   0.11412   1.000
    C2216   C    0.57594   0.52491   0.10750   1.000
    C2217   C    0.56641   0.54054   0.11712   1.000
    C2218   C    0.57406   0.54786   0.13358   1.000
    C2219   C    0.58637   0.54143   0.13970   1.000
    C2220   C    0.48217   0.40911   0.06995   1.000
    C2221   C    0.48186   0.38736   0.09185   1.000
    C2222   C    0.47560   0.39400   0.07657   1.000
    C2223   C    0.46019   0.38437   0.06666   1.000
    C2224   C    0.45322   0.36732   0.07345   1.000
    C2225   C    0.45947   0.36094   0.08572   1.000
    C2226   C    0.52006   0.59459   0.06829   1.000
    C2227   C    0.52057   0.61635   0.09005   1.000
    C2228   C    0.52679   0.60964   0.07486   1.000
    C2229   C    0.54245   0.61898   0.06506   1.000
    C2230   C    0.55064   0.63528   0.07235   1.000
    C2231   C    0.54506   0.64149   0.08496   1.000
    C2232   C    0.40679   0.43465   0.02036   1.000
    C2233   C    0.38504   0.41284   0.02061   1.000
    C2234   C    0.39168   0.42803   0.02695   1.000
    C2235   C    0.38215   0.43781   0.04254   1.000
    C2236   C    0.36545   0.43076   0.05015   1.000
    C2237   C    0.35899   0.41852   0.04404   1.000
    C2238   C    0.59385   0.56741   0.01855   1.000
    C2239   C    0.61574   0.58909   0.01804   1.000
    C2240   C    0.60915   0.57400   0.02468   1.000
    C2241   C    0.61906   0.56444   0.04015   1.000
    C2242   C    0.63543   0.57219   0.04766   1.000
    C2243   C    0.64137   0.58463   0.04140   1.000
    C2244   C    0.51992   0.56848   0.09335   1.000
    C2245   C    0.52057   0.59014   0.11520   1.000
    C2246   C    0.52671   0.57491   0.10841   1.000
    C2247   C    0.54237   0.56493   0.11771   1.000
    C2248   C    0.55029   0.57203   0.13420   1.000
    C2249   C    0.54453   0.58451   0.14055   1.000
    C2250   C    0.48240   0.43444   0.09569   1.000
    C2251   C    0.48205   0.41286   0.11773   1.000
    C2252   C    0.47577   0.42804   0.11085   1.000
    C2253   C    0.46016   0.43805   0.12015   1.000
    C2254   C    0.45237   0.43117   0.13684   1.000
    C2255   C    0.45828   0.41886   0.14346   1.000
    C2256   C    0.59523   0.51808   0.06744   1.000
    C2257   C    0.61724   0.51805   0.08905   1.000
    C2258   C    0.61046   0.52450   0.07395   1.000
    C2259   C    0.61988   0.54018   0.06423   1.000
    C2260   C    0.63630   0.54814   0.07157   1.000
    C2261   C    0.64265   0.54229   0.08403   1.000
    C2262   C    0.40740   0.48417   0.06906   1.000
    C2263   C    0.38549   0.48485   0.09066   1.000
    C2264   C    0.39211   0.47803   0.07571   1.000
    C2265   C    0.38232   0.46236   0.06629   1.000
    C2266   C    0.36558   0.45516   0.07361   1.000
    C2267   C    0.35948   0.46149   0.08591   1.000
    C2268   C    0.56845   0.59337   0.01863   1.000
    C2269   C    0.59042   0.61497   0.01810   1.000
    C2270   C    0.57533   0.60852   0.02483   1.000
    C2271   C    0.56615   0.61836   0.04053   1.000
    C2272   C    0.57411   0.63464   0.04801   1.000
    C2273   C    0.58640   0.64064   0.04154   1.000
    C2274   C    0.43266   0.40919   0.02034   1.000
    C2275   C    0.41096   0.38733   0.02057   1.000
    C2276   C    0.42615   0.39402   0.02690   1.000
    C2277   C    0.43600   0.38439   0.04243   1.000
    C2278   C    0.42918   0.36739   0.04955   1.000
    C2279   C    0.41714   0.36085   0.04313   1.000
    C2280   C    0.56930   0.48200   0.09332   1.000
    C2281   C    0.59130   0.48200   0.11495   1.000
    C2282   C    0.57601   0.47568   0.10853   1.000
    C2283   C    0.56632   0.46037   0.11854   1.000
    C2284   C    0.57412   0.45281   0.13489   1.000
    C2285   C    0.58666   0.45894   0.14074   1.000
    C2286   C    0.43335   0.52082   0.09422   1.000
    C2287   C    0.41149   0.52142   0.11589   1.000
    C2288   C    0.42678   0.52754   0.10927   1.000
    C2289   C    0.43676   0.54297   0.11885   1.000
    C2290   C    0.42990   0.55044   0.13566   1.000
    C2291   C    0.41762   0.54440   0.14211   1.000
    C2292   C    0.48361   0.59495   0.06829   1.000
    C2293   C    0.48395   0.61664   0.09011   1.000
    C2294   C    0.47735   0.61016   0.07496   1.000
    C2295   C    0.46179   0.61994   0.06530   1.000
    C2296   C    0.45355   0.63598   0.07310   1.000
    C2297   C    0.45900   0.64166   0.08602   1.000
    C2298   C    0.51853   0.40797   0.07048   1.000
    C2299   C    0.51832   0.38626   0.09242   1.000
    C2300   C    0.52473   0.39266   0.07716   1.000
    C2301   C    0.53987   0.38257   0.06723   1.000
    C2302   C    0.54701   0.36555   0.07417   1.000
    C2303   C    0.54094   0.35929   0.08654   1.000
    C2304   C    0.59219   0.43175   0.01962   1.000
    C2305   C    0.61361   0.40950   0.01958   1.000
    C2306   C    0.60734   0.42484   0.02591   1.000
    C2307   C    0.61746   0.43433   0.04118   1.000
    C2308   C    0.63376   0.42633   0.04866   1.000
    C2309   C    0.63948   0.41372   0.04254   1.000
    C2310   C    0.41010   0.57009   0.01850   1.000
    C2311   C    0.38846   0.59212   0.01807   1.000
    C2312   C    0.39494   0.57693   0.02472   1.000
    C2313   C    0.38505   0.56752   0.04025   1.000
    C2314   C    0.36856   0.57528   0.04747   1.000
    C2315   C    0.36257   0.58765   0.04102   1.000
    C2316   C    0.50058   0.42359   0.08077   1.000
    C2317   C    0.50022   0.39760   0.10713   1.000
    C2318   C    0.50169   0.57968   0.07877   1.000
    C2319   C    0.50231   0.60568   0.10500   1.000
    C2320   C    0.42179   0.42409   0.00205   1.000
    C2321   C    0.39575   0.39787   0.00232   1.000
    C2322   C    0.57680   0.42136   0.00159   1.000
    C2323   C    0.60262   0.39473   0.00159   1.000
    C2324   C    0.42508   0.58048   0.00015   1.000
    C2325   C    0.39907   0.60691   0.99967   1.000
    C2326   C    0.57864   0.57801   0.00040   1.000
    C2327   C    0.60498   0.60401   0.99984   1.000
    C2328   C    0.42281   0.50247   0.07919   1.000
    C2329   C    0.39656   0.50321   0.10516   1.000
    C2330   C    0.57996   0.49999   0.07797   1.000
    C2331   C    0.60631   0.49998   0.10402   1.000
    C2332   C    0.55000   0.45236   0.11117   1.000
    C2333   C    0.54411   0.45795   0.09836   1.000
    C2334   C    0.56612   0.43718   0.14365   1.000
    C2335   C    0.45268   0.55101   0.11065   1.000
    C2336   C    0.45785   0.54558   0.09753   1.000
    C2337   C    0.43872   0.56578   0.14418   1.000
    C2338   C    0.39263   0.55146   0.04874   1.000
    C2339   C    0.40555   0.54560   0.04345   1.000
    C2340   C    0.35984   0.56744   0.06316   1.000
    C2341   C    0.61023   0.45066   0.04923   1.000
    C2342   C    0.59744   0.45666   0.04371   1.000
    C2343   C    0.64265   0.43424   0.06421   1.000
    C2344   C    0.54794   0.39050   0.05118   1.000
    C2345   C    0.54277   0.40377   0.04594   1.000
    C2346   C    0.56205   0.35656   0.06525   1.000
    C2347   C    0.45412   0.61233   0.04891   1.000
    C2348   C    0.46014   0.59975   0.04303   1.000
    C2349   C    0.43762   0.64415   0.06489   1.000
    C2350   C    0.45210   0.45392   0.11166   1.000
    C2351   C    0.45772   0.45907   0.09859   1.000
    C2352   C    0.43677   0.43997   0.14493   1.000
    C2353   C    0.55045   0.54906   0.10934   1.000
    C2354   C    0.54469   0.54370   0.09643   1.000
    C2355   C    0.56624   0.56366   0.14208   1.000
    C2356   C    0.45162   0.39269   0.05100   1.000
    C2357   C    0.45674   0.40597   0.04584   1.000
    C2358   C    0.43770   0.35880   0.06505   1.000
    C2359   C    0.55022   0.61075   0.04904   1.000
    C2360   C    0.54423   0.59800   0.04353   1.000
    C2361   C    0.56658   0.64312   0.06399   1.000
    C2362   C    0.39036   0.45369   0.05065   1.000
    C2363   C    0.40339   0.45900   0.04510   1.000
    C2364   C    0.35705   0.43934   0.06570   1.000
    C2365   C    0.61150   0.54834   0.04841   1.000
    C2366   C    0.59865   0.54253   0.04289   1.000
    C2367   C    0.64403   0.56428   0.06345   1.000
    C2368   C    0.10692   0.13845   0.25720   1.000
    C2369   C    0.09768   0.13094   0.24176   1.000
    C2370   C    0.10463   0.11495   0.23282   1.000
    C2371   C    0.12101   0.10648   0.23982   1.000
    C2372   C    0.13030   0.11404   0.25525   1.000
    C2373   C    0.12332   0.13008   0.26416   1.000
    C2374   C    0.09403   0.10726   0.21674   1.000
    C2375   C    0.10163   0.09599   0.20387   1.000
    C2376   C    0.09119   0.08829   0.18771   1.000
    C2377   C    0.10144   0.08153   0.17246   1.000
    C2378   C    0.09236   0.07368   0.15711   1.000
    C2379   C    0.07277   0.07227   0.15669   1.000
    C2380   C    0.06244   0.07905   0.17189   1.000
    C2381   C    0.07153   0.08689   0.18732   1.000
    C2382   C    0.10120   0.15090   0.26360   1.000
    C2383   C    0.08505   0.13770   0.23673   1.000
    C2384   C    0.12653   0.09377   0.23379   1.000
    C2385   C    0.14271   0.10704   0.26041   1.000
    C2386   C    0.07969   0.11183   0.21514   1.000
    C2387   C    0.11641   0.09282   0.20459   1.000
    C2388   C    0.11656   0.08236   0.17240   1.000
    C2389   C    0.10069   0.06881   0.14548   1.000
    C2390   C    0.04734   0.07790   0.17204   1.000
    C2391   C    0.06310   0.09137   0.19899   1.000
    C2392   C    0.14169   0.61406   0.75385   1.000
    C2393   C    0.13436   0.60517   0.73817   1.000
    C2394   C    0.11653   0.60977   0.73142   1.000
    C2395   C    0.10627   0.62388   0.74056   1.000
    C2396   C    0.11362   0.63279   0.75635   1.000
    C2397   C    0.13138   0.62788   0.76326   1.000
    C2398   C    0.10965   0.59983   0.71460   1.000
    C2399   C    0.09164   0.59913   0.70935   1.000
    C2400   C    0.08499   0.58876   0.69266   1.000
    C2401   C    0.06586   0.58466   0.69115   1.000
    C2402   C    0.05884   0.57547   0.67544   1.000
    C2403   C    0.07083   0.57014   0.66088   1.000
    C2404   C    0.08998   0.57408   0.66237   1.000
    C2405   C    0.09699   0.58342   0.67800   1.000
    C2406   C    0.15555   0.61005   0.75843   1.000
    C2407   C    0.14270   0.59457   0.73129   1.000
    C2408   C    0.09271   0.62832   0.73551   1.000
    C2409   C    0.10532   0.64344   0.76315   1.000
    C2410   C    0.11994   0.59193   0.70687   1.000
    C2411   C    0.08111   0.60571   0.71795   1.000
    C2412   C    0.05626   0.58866   0.70213   1.000
    C2413   C    0.04400   0.57259   0.67462   1.000
    C2414   C    0.09945   0.57053   0.65114   1.000
    C2415   C    0.11170   0.58682   0.67814   1.000
    C2416   C    0.60745   0.13501   0.76213   1.000
    C2417   C    0.59812   0.12708   0.74702   1.000
    C2418   C    0.60604   0.11223   0.73711   1.000
    C2419   C    0.62354   0.10518   0.74289   1.000
    C2420   C    0.63296   0.11313   0.75810   1.000
    C2421   C    0.62508   0.12825   0.76797   1.000
    C2422   C    0.59527   0.10446   0.72120   1.000
    C2423   C    0.60288   0.09448   0.70734   1.000
    C2424   C    0.59209   0.08763   0.69100   1.000
    C2425   C    0.60195   0.08265   0.67484   1.000
    C2426   C    0.59255   0.07576   0.65923   1.000
    C2427   C    0.57302   0.07359   0.65942   1.000
    C2428   C    0.56305   0.07872   0.67546   1.000
    C2429   C    0.57248   0.08553   0.69117   1.000
    C2430   C    0.60055   0.14649   0.76906   1.000
    C2431   C    0.58463   0.13272   0.74297   1.000
    C2432   C    0.62991   0.09337   0.73596   1.000
    C2433   C    0.64636   0.10730   0.76207   1.000
    C2434   C    0.58064   0.10825   0.72043   1.000
    C2435   C    0.61782   0.09203   0.70729   1.000
    C2436   C    0.61702   0.08409   0.67429   1.000
    C2437   C    0.60057   0.07207   0.64696   1.000
    C2438   C    0.54803   0.07689   0.67604   1.000
    C2439   C    0.56433   0.08863   0.70348   1.000
    C2440   C    0.60809   0.63800   0.25895   1.000
    C2441   C    0.59873   0.62978   0.24398   1.000
    C2442   C    0.60598   0.61380   0.23533   1.000
    C2443   C    0.62267   0.60590   0.24224   1.000
    C2444   C    0.63207   0.61414   0.25722   1.000
    C2445   C    0.62493   0.63033   0.26574   1.000
    C2446   C    0.59553   0.60564   0.21947   1.000
    C2447   C    0.60355   0.59488   0.20645   1.000
    C2448   C    0.59338   0.58723   0.19015   1.000
    C2449   C    0.60381   0.58155   0.17460   1.000
    C2450   C    0.59496   0.57404   0.15899   1.000
    C2451   C    0.57544   0.57192   0.15862   1.000
    C2452   C    0.56493   0.57755   0.17414   1.000
    C2453   C    0.57380   0.58502   0.18984   1.000
    C2454   C    0.60197   0.65033   0.26516   1.000
    C2455   C    0.58580   0.63602   0.23906   1.000
    C2456   C    0.62841   0.59320   0.23639   1.000
    C2457   C    0.64490   0.60773   0.26208   1.000
    C2458   C    0.58101   0.60964   0.21801   1.000
    C2459   C    0.61845   0.59232   0.20704   1.000
    C2460   C    0.61888   0.58305   0.17448   1.000
    C2461   C    0.60338   0.57001   0.14710   1.000
    C2462   C    0.54989   0.57580   0.17428   1.000
    C2463   C    0.56528   0.58866   0.20174   1.000
    C2464   C    0.86235   0.89208   0.25957   1.000
    C2465   C    0.87007   0.90139   0.24430   1.000
    C2466   C    0.88596   0.89436   0.23535   1.000
    C2467   C    0.89422   0.87782   0.24224   1.000
    C2468   C    0.88652   0.86846   0.25763   1.000
    C2469   C    0.87039   0.87541   0.26655   1.000
    C2470   C    0.89354   0.90501   0.21923   1.000
    C2471   C    0.90421   0.89737   0.20589   1.000
    C2472   C    0.91101   0.90784   0.18929   1.000
    C2473   C    0.91657   0.89761   0.17356   1.000
    C2474   C    0.92353   0.90669   0.15778   1.000
    C2475   C    0.92528   0.92627   0.15736   1.000
    C2476   C    0.91955   0.93661   0.17298   1.000
    C2477   C    0.91259   0.92750   0.18885   1.000
    C2478   C    0.85004   0.89824   0.26575   1.000
    C2479   C    0.86347   0.91414   0.23937   1.000
    C2480   C    0.90680   0.87220   0.23605   1.000
    C2481   C    0.89333   0.85582   0.26245   1.000
    C2482   C    0.88906   0.91941   0.21781   1.000
    C2483   C    0.90733   0.88256   0.20647   1.000
    C2484   C    0.91551   0.88250   0.17348   1.000
    C2485   C    0.92761   0.89835   0.14585   1.000
    C2486   C    0.92100   0.95168   0.17312   1.000
    C2487   C    0.90897   0.93593   0.20083   1.000
    C2488   C    0.86345   0.39149   0.75861   1.000
    C2489   C    0.87151   0.40059   0.74338   1.000
    C2490   C    0.88758   0.39341   0.73484   1.000
    C2491   C    0.89571   0.37701   0.74217   1.000
    C2492   C    0.88765   0.36784   0.75746   1.000
    C2493   C    0.87132   0.37490   0.76595   1.000
    C2494   C    0.89558   0.40382   0.71878   1.000
    C2495   C    0.90684   0.39608   0.70599   1.000
    C2496   C    0.91420   0.40638   0.68954   1.000
    C2497   C    0.92035   0.39602   0.67412   1.000
    C2498   C    0.92768   0.40499   0.65843   1.000
    C2499   C    0.92917   0.42458   0.65782   1.000
    C2500   C    0.92305   0.43502   0.67324   1.000
    C2501   C    0.91574   0.42603   0.68900   1.000
    C2502   C    0.85099   0.39768   0.76446   1.000
    C2503   C    0.86503   0.41328   0.73815   1.000
    C2504   C    0.90845   0.37131   0.73636   1.000
    C2505   C    0.89439   0.35527   0.76257   1.000
    C2506   C    0.89103   0.41815   0.71697   1.000
    C2507   C    0.91006   0.38132   0.70688   1.000
    C2508   C    0.91939   0.38090   0.67416   1.000
    C2509   C    0.93204   0.39657   0.64667   1.000
    C2510   C    0.92431   0.45011   0.67326   1.000
    C2511   C    0.91174   0.43453   0.70080   1.000
    C2512   C    0.36352   0.89198   0.76099   1.000
    C2513   C    0.37160   0.90133   0.74593   1.000
    C2514   C    0.38702   0.89371   0.73660   1.000
    C2515   C    0.39453   0.87661   0.74299   1.000
    C2516   C    0.38643   0.86721   0.75809   1.000
    C2517   C    0.37075   0.87473   0.76723   1.000
    C2518   C    0.39497   0.90425   0.72063   1.000
    C2519   C    0.40544   0.89638   0.70727   1.000
    C2520   C    0.41283   0.90673   0.69090   1.000
    C2521   C    0.41860   0.89642   0.67530   1.000
    C2522   C    0.42595   0.90542   0.65965   1.000
    C2523   C    0.42779   0.92497   0.65928   1.000
    C2524   C    0.42199   0.93537   0.67482   1.000
    C2525   C    0.41471   0.92636   0.69055   1.000
    C2526   C    0.35164   0.89842   0.76772   1.000
    C2527   C    0.36565   0.91456   0.74144   1.000
    C2528   C    0.40679   0.87052   0.73661   1.000
    C2529   C    0.39246   0.85404   0.76252   1.000
    C2530   C    0.39101   0.91881   0.71940   1.000
    C2531   C    0.40799   0.88146   0.70767   1.000
    C2532   C    0.41737   0.88132   0.67518   1.000
    C2533   C    0.43012   0.89707   0.64776   1.000
    C2534   C    0.42352   0.95044   0.67496   1.000
    C2535   C    0.41101   0.93484   0.70246   1.000
    C2536   C    0.38528   0.36062   0.25465   1.000
    C2537   C    0.39389   0.36824   0.23897   1.000
    C2538   C    0.38793   0.38536   0.23152   1.000
    C2539   C    0.37272   0.39459   0.23993   1.000
    C2540   C    0.36399   0.38692   0.25571   1.000
    C2541   C    0.37022   0.36984   0.26343   1.000
    C2542   C    0.39778   0.39259   0.21479   1.000
    C2543   C    0.39753   0.41052   0.20927   1.000
    C2544   C    0.40818   0.41751   0.19288   1.000
    C2545   C    0.41203   0.43671   0.19159   1.000
    C2546   C    0.42170   0.44395   0.17626   1.000
    C2547   C    0.42773   0.43212   0.16184   1.000
    C2548   C    0.42397   0.41291   0.16309   1.000
    C2549   C    0.41418   0.40567   0.17835   1.000
    C2550   C    0.39064   0.34740   0.25967   1.000
    C2551   C    0.40544   0.36072   0.23269   1.000
    C2552   C    0.36731   0.40757   0.23430   1.000
    C2553   C    0.35241   0.39451   0.26177   1.000
    C2554   C    0.40654   0.38271   0.20745   1.000
    C2555   C    0.39009   0.42077   0.21751   1.000
    C2556   C    0.40751   0.44617   0.20249   1.000
    C2557   C    0.42443   0.45883   0.17564   1.000
    C2558   C    0.42805   0.40356   0.15194   1.000
    C2559   C    0.41097   0.39091   0.17834   1.000
    C2560   C    0.88937   0.14129   0.74085   1.000
    C2561   C    0.89816   0.13434   0.75688   1.000
    C2562   C    0.89200   0.11775   0.76534   1.000
    C2563   C    0.87644   0.10848   0.75765   1.000
    C2564   C    0.86760   0.11546   0.74161   1.000
    C2565   C    0.87404   0.13189   0.73293   1.000
    C2566   C    0.90188   0.11097   0.78234   1.000
    C2567   C    0.90166   0.09309   0.78810   1.000
    C2568   C    0.91181   0.08612   0.80489   1.000
    C2569   C    0.91499   0.06681   0.80664   1.000
    C2570   C    0.92391   0.05947   0.82243   1.000
    C2571   C    0.92981   0.07128   0.83693   1.000
    C2572   C    0.92677   0.09063   0.83518   1.000
    C2573   C    0.91778   0.09799   0.81941   1.000
    C2574   C    0.89458   0.15413   0.73481   1.000
    C2575   C    0.90993   0.14191   0.76263   1.000
    C2576   C    0.87083   0.09599   0.76407   1.000
    C2577   C    0.85580   0.10788   0.73599   1.000
    C2578   C    0.91043   0.12102   0.78967   1.000
    C2579   C    0.89442   0.08277   0.77978   1.000
    C2580   C    0.91050   0.05733   0.79575   1.000
    C2581   C    0.92615   0.04451   0.82333   1.000
    C2582   C    0.93081   0.10002   0.84631   1.000
    C2583   C    0.91512   0.11287   0.81899   1.000
    C2584   C    0.85933   0.60994   0.24474   1.000
    C2585   C    0.86695   0.60066   0.26017   1.000
    C2586   C    0.88372   0.60677   0.26827   1.000
    C2587   C    0.89262   0.62262   0.26074   1.000
    C2588   C    0.88499   0.63191   0.24529   1.000
    C2589   C    0.86825   0.62570   0.23709   1.000
    C2590   C    0.89092   0.59674   0.28496   1.000
    C2591   C    0.90876   0.59755   0.29075   1.000
    C2592   C    0.91580   0.58787   0.30772   1.000
    C2593   C    0.93514   0.58510   0.30972   1.000
    C2594   C    0.94246   0.57671   0.32581   1.000
    C2595   C    0.93055   0.57093   0.34026   1.000
    C2596   C    0.91120   0.57364   0.33830   1.000
    C2597   C    0.90388   0.58212   0.32228   1.000
    C2598   C    0.84646   0.60466   0.23886   1.000
    C2599   C    0.85970   0.58860   0.26578   1.000
    C2600   C    0.90521   0.62822   0.26693   1.000
    C2601   C    0.89215   0.64413   0.24002   1.000
    C2602   C    0.88114   0.58782   0.29224   1.000
    C2603   C    0.91890   0.60510   0.28248   1.000
    C2604   C    0.94465   0.58950   0.29880   1.000
    C2605   C    0.95743   0.57473   0.32696   1.000
    C2606   C    0.90175   0.56971   0.34943   1.000
    C2607   C    0.88898   0.58458   0.32171   1.000
    C2608   C    0.39118   0.13723   0.23826   1.000
    C2609   C    0.40048   0.12936   0.25355   1.000
    C2610   C    0.39295   0.11398   0.26307   1.000
    C2611   C    0.37596   0.10636   0.25668   1.000
    C2612   C    0.36662   0.11425   0.24134   1.000
    C2613   C    0.37408   0.12984   0.23196   1.000
    C2614   C    0.40355   0.10615   0.27919   1.000
    C2615   C    0.39581   0.09559   0.29261   1.000
    C2616   C    0.40621   0.08817   0.30905   1.000
    C2617   C    0.39590   0.08195   0.32451   1.000
    C2618   C    0.40488   0.07445   0.34016   1.000
    C2619   C    0.42447   0.07285   0.34072   1.000
    C2620   C    0.43488   0.07914   0.32534   1.000
    C2621   C    0.42587   0.08661   0.30960   1.000
    C2622   C    0.39759   0.14906   0.23139   1.000
    C2623   C    0.41362   0.13541   0.25802   1.000
    C2624   C    0.36991   0.09415   0.26322   1.000
    C2625   C    0.35357   0.10807   0.23689   1.000
    C2626   C    0.41806   0.11018   0.28040   1.000
    C2627   C    0.38093   0.09290   0.29218   1.000
    C2628   C    0.38077   0.08293   0.32451   1.000
    C2629   C    0.39648   0.06995   0.35190   1.000
    C2630   C    0.44997   0.07784   0.32531   1.000
    C2631   C    0.43439   0.09069   0.29784   1.000
    C2632   C    0.35851   0.60842   0.74273   1.000
    C2633   C    0.36583   0.59931   0.75843   1.000
    C2634   C    0.38206   0.60593   0.76719   1.000
    C2635   C    0.39062   0.62219   0.76017   1.000
    C2636   C    0.38330   0.63131   0.74449   1.000
    C2637   C    0.36719   0.62452   0.73550   1.000
    C2638   C    0.38922   0.59600   0.78396   1.000
    C2639   C    0.40710   0.59690   0.78962   1.000
    C2640   C    0.41438   0.58740   0.80659   1.000
    C2641   C    0.43374   0.58455   0.80825   1.000
    C2642   C    0.44133   0.57634   0.82430   1.000
    C2643   C    0.42969   0.57087   0.83910   1.000
    C2644   C    0.41031   0.57369   0.83747   1.000
    C2645   C    0.40272   0.58194   0.82145   1.000
    C2646   C    0.34608   0.60275   0.73628   1.000
    C2647   C    0.35883   0.58695   0.76368   1.000
    C2648   C    0.40273   0.62819   0.76693   1.000
    C2649   C    0.39025   0.64381   0.73963   1.000
    C2650   C    0.37950   0.58708   0.79133   1.000
    C2651   C    0.41715   0.60440   0.78117   1.000
    C2652   C    0.44306   0.58872   0.79709   1.000
    C2653   C    0.45631   0.57423   0.82513   1.000
    C2654   C    0.40105   0.57000   0.84884   1.000
    C2655   C    0.38782   0.58447   0.82107   1.000
    C2656   C    0.14150   0.88802   0.74334   1.000
    C2657   C    0.13422   0.89674   0.75918   1.000
    C2658   C    0.11739   0.89065   0.76713   1.000
    C2659   C    0.10814   0.87529   0.75905   1.000
    C2660   C    0.11543   0.86656   0.74318   1.000
    C2661   C    0.13218   0.87284   0.73506   1.000
    C2662   C    0.11042   0.90031   0.78410   1.000
    C2663   C    0.09258   0.89967   0.78989   1.000
    C2664   C    0.08559   0.90935   0.80686   1.000
    C2665   C    0.06625   0.91210   0.80879   1.000
    C2666   C    0.05892   0.92057   0.82476   1.000
    C2667   C    0.07080   0.92648   0.83922   1.000
    C2668   C    0.09016   0.92382   0.83733   1.000
    C2669   C    0.09750   0.91525   0.82140   1.000
    C2670   C    0.15452   0.89322   0.73773   1.000
    C2671   C    0.14177   0.90838   0.76521   1.000
    C2672   C    0.09546   0.86972   0.76505   1.000
    C2673   C    0.10786   0.85487   0.73734   1.000
    C2674   C    0.12034   0.90893   0.79153   1.000
    C2675   C    0.08233   0.89237   0.78154   1.000
    C2676   C    0.05673   0.90763   0.79790   1.000
    C2677   C    0.04394   0.92254   0.82579   1.000
    C2678   C    0.09962   0.92787   0.84843   1.000
    C2679   C    0.11242   0.91289   0.82087   1.000
    C2680   C    0.11653   0.35874   0.24681   1.000
    C2681   C    0.10793   0.36609   0.26265   1.000
    C2682   C    0.11211   0.38419   0.26885   1.000
    C2683   C    0.12558   0.39467   0.25900   1.000
    C2684   C    0.13423   0.38727   0.24307   1.000
    C2685   C    0.12966   0.36926   0.23668   1.000
    C2686   C    0.10234   0.39113   0.28579   1.000
    C2687   C    0.10124   0.40919   0.29076   1.000
    C2688   C    0.09093   0.41595   0.30751   1.000
    C2689   C    0.08678   0.43511   0.30885   1.000
    C2690   C    0.07760   0.44226   0.32451   1.000
    C2691   C    0.07231   0.43039   0.33924   1.000
    C2692   C    0.07629   0.41121   0.33792   1.000
    C2693   C    0.08562   0.40406   0.32232   1.000
    C2694   C    0.11283   0.34470   0.24265   1.000
    C2695   C    0.09783   0.35758   0.27003   1.000
    C2696   C    0.12968   0.40846   0.26357   1.000
    C2697   C    0.14434   0.39574   0.23569   1.000
    C2698   C    0.09493   0.38076   0.29389   1.000
    C2699   C    0.10744   0.41973   0.28187   1.000
    C2700   C    0.09072   0.44463   0.29775   1.000
    C2701   C    0.07465   0.45711   0.32514   1.000
    C2702   C    0.07275   0.40180   0.34925   1.000
    C2703   C    0.08899   0.38932   0.32232   1.000
    C2704   C    0.64191   0.88913   0.24612   1.000
    C2705   C    0.63459   0.89818   0.26171   1.000
    C2706   C    0.61751   0.89255   0.26944   1.000
    C2707   C    0.60803   0.87732   0.26140   1.000
    C2708   C    0.61536   0.86825   0.24575   1.000
    C2709   C    0.63236   0.87410   0.23784   1.000
    C2710   C    0.61051   0.90260   0.28611   1.000
    C2711   C    0.59256   0.90256   0.29151   1.000
    C2712   C    0.58561   0.91265   0.30821   1.000
    C2713   C    0.56635   0.91615   0.30969   1.000
    C2714   C    0.55904   0.92501   0.32544   1.000
    C2715   C    0.57086   0.93054   0.34009   1.000
    C2716   C    0.59014   0.92719   0.33862   1.000
    C2717   C    0.59745   0.91822   0.32292   1.000
    C2718   C    0.65512   0.89400   0.24068   1.000
    C2719   C    0.64230   0.90974   0.26772   1.000
    C2720   C    0.59513   0.87210   0.26728   1.000
    C2721   C    0.60764   0.85665   0.23992   1.000
    C2722   C    0.62054   0.91105   0.29360   1.000
    C2723   C    0.58224   0.89543   0.28307   1.000
    C2724   C    0.55689   0.91192   0.29866   1.000
    C2725   C    0.54411   0.92748   0.32620   1.000
    C2726   C    0.59950   0.93094   0.34991   1.000
    C2727   C    0.61227   0.91525   0.32274   1.000
    C2728   C    0.60708   0.36332   0.73865   1.000
    C2729   C    0.59779   0.37117   0.75389   1.000
    C2730   C    0.60574   0.38597   0.76393   1.000
    C2731   C    0.62315   0.39306   0.75807   1.000
    C2732   C    0.63247   0.38519   0.74277   1.000
    C2733   C    0.62459   0.37014   0.73291   1.000
    C2734   C    0.59515   0.39374   0.78002   1.000
    C2735   C    0.60300   0.40368   0.79384   1.000
    C2736   C    0.59260   0.41096   0.81029   1.000
    C2737   C    0.60293   0.41673   0.82593   1.000
    C2738   C    0.59399   0.42415   0.84158   1.000
    C2739   C    0.57443   0.42608   0.84199   1.000
    C2740   C    0.56400   0.42018   0.82647   1.000
    C2741   C    0.57296   0.41281   0.81072   1.000
    C2742   C    0.60034   0.35194   0.73138   1.000
    C2743   C    0.58434   0.36553   0.75792   1.000
    C2744   C    0.62956   0.40483   0.76501   1.000
    C2745   C    0.64586   0.39091   0.73875   1.000
    C2746   C    0.58051   0.39013   0.78086   1.000
    C2747   C    0.61795   0.40596   0.79370   1.000
    C2748   C    0.61803   0.41552   0.82605   1.000
    C2749   C    0.60242   0.42834   0.85342   1.000
    C2750   C    0.54893   0.42175   0.82630   1.000
    C2751   C    0.56441   0.40906   0.79885   1.000
    C2752   C    0.25182   0.14080   0.11553   1.000
    C2753   C    0.23599   0.13326   0.10706   1.000
    C2754   C    0.23000   0.11510   0.11138   1.000
    C2755   C    0.24006   0.10475   0.12487   1.000
    C2756   C    0.25601   0.11233   0.13338   1.000
    C2757   C    0.26218   0.13040   0.12868   1.000
    C2758   C    0.21306   0.10797   0.10169   1.000
    C2759   C    0.20802   0.08990   0.10105   1.000
    C2760   C    0.19128   0.08299   0.09078   1.000
    C2761   C    0.18984   0.06375   0.08717   1.000
    C2762   C    0.17423   0.05650   0.07793   1.000
    C2763   C    0.15968   0.06836   0.07203   1.000
    C2764   C    0.16107   0.08760   0.07553   1.000
    C2765   C    0.17659   0.09485   0.08493   1.000
    C2766   C    0.25581   0.15487   0.11172   1.000
    C2767   C    0.22843   0.14167   0.09693   1.000
    C2768   C    0.23569   0.09091   0.12908   1.000
    C2769   C    0.26355   0.10394   0.14350   1.000
    C2770   C    0.20500   0.11819   0.09396   1.000
    C2771   C    0.21682   0.07946   0.10762   1.000
    C2772   C    0.20084   0.05425   0.09155   1.000
    C2773   C    0.17352   0.04159   0.07538   1.000
    C2774   C    0.14984   0.09700   0.07151   1.000
    C2775   C    0.17664   0.10965   0.08789   1.000
    C2776   C    0.25837   0.64138   0.60861   1.000
    C2777   C    0.24288   0.63383   0.59942   1.000
    C2778   C    0.23390   0.61787   0.60644   1.000
    C2779   C    0.24058   0.60977   0.62310   1.000
    C2780   C    0.25605   0.61733   0.63231   1.000
    C2781   C    0.26517   0.63323   0.62520   1.000
    C2782   C    0.21724   0.61062   0.59646   1.000
    C2783   C    0.21121   0.59292   0.59802   1.000
    C2784   C    0.19430   0.58570   0.58842   1.000
    C2785   C    0.19241   0.56631   0.58610   1.000
    C2786   C    0.17640   0.55882   0.57779   1.000
    C2787   C    0.16185   0.57059   0.57170   1.000
    C2788   C    0.16370   0.59001   0.57402   1.000
    C2789   C    0.17969   0.59750   0.58236   1.000
    C2790   C    0.26492   0.65362   0.60265   1.000
    C2791   C    0.23792   0.64046   0.58671   1.000
    C2792   C    0.23368   0.59787   0.62937   1.000
    C2793   C    0.26064   0.61075   0.64515   1.000
    C2794   C    0.21022   0.62013   0.58697   1.000
    C2795   C    0.21929   0.58297   0.60613   1.000
    C2796   C    0.20337   0.55689   0.59075   1.000
    C2797   C    0.17541   0.54381   0.57609   1.000
    C2798   C    0.15252   0.59939   0.56986   1.000
    C2799   C    0.18024   0.61246   0.58447   1.000
    C2800   C    0.75622   0.14110   0.61131   1.000
    C2801   C    0.74082   0.13349   0.60207   1.000
    C2802   C    0.73259   0.11686   0.60838   1.000
    C2803   C    0.74011   0.10801   0.62433   1.000
    C2804   C    0.75557   0.11565   0.63360   1.000
    C2805   C    0.76377   0.13234   0.62724   1.000
    C2806   C    0.71583   0.10982   0.59834   1.000
    C2807   C    0.70955   0.09218   0.59949   1.000
    C2808   C    0.69263   0.08541   0.58950   1.000
    C2809   C    0.69043   0.06610   0.58682   1.000
    C2810   C    0.67440   0.05903   0.57817   1.000
    C2811   C    0.66012   0.07113   0.57207   1.000
    C2812   C    0.66232   0.09047   0.57462   1.000
    C2813   C    0.67833   0.09755   0.58333   1.000
    C2814   C    0.76218   0.15386   0.60582   1.000
    C2815   C    0.73532   0.14066   0.58989   1.000
    C2816   C    0.73390   0.09546   0.63003   1.000
    C2817   C    0.76085   0.10861   0.64593   1.000
    C2818   C    0.70889   0.11958   0.58905   1.000
    C2819   C    0.71740   0.08196   0.60747   1.000
    C2820   C    0.70115   0.05641   0.59149   1.000
    C2821   C    0.67315   0.04406   0.57630   1.000
    C2822   C    0.65137   0.10011   0.57043   1.000
    C2823   C    0.67908   0.11246   0.58565   1.000
    C2824   C    0.76264   0.60731   0.13593   1.000
    C2825   C    0.74792   0.59756   0.12763   1.000
    C2826   C    0.73801   0.60529   0.11256   1.000
    C2827   C    0.74357   0.62284   0.10552   1.000
    C2828   C    0.75833   0.63261   0.11383   1.000
    C2829   C    0.76792   0.62505   0.12926   1.000
    C2830   C    0.72224   0.59449   0.10450   1.000
    C2831   C    0.70822   0.60237   0.09477   1.000
    C2832   C    0.69196   0.59191   0.08725   1.000
    C2833   C    0.67611   0.60214   0.08170   1.000
    C2834   C    0.66055   0.59313   0.07418   1.000
    C2835   C    0.66046   0.57362   0.07194   1.000
    C2836   C    0.67621   0.56328   0.07755   1.000
    C2837   C    0.69188   0.57232   0.08500   1.000
    C2838   C    0.76985   0.60084   0.14757   1.000
    C2839   C    0.74413   0.58397   0.13318   1.000
    C2840   C    0.73675   0.62905   0.09351   1.000
    C2841   C    0.76204   0.64616   0.10823   1.000
    C2842   C    0.72176   0.57973   0.10778   1.000
    C2843   C    0.70802   0.61740   0.09293   1.000
    C2844   C    0.67575   0.61721   0.08322   1.000
    C2845   C    0.64849   0.60145   0.07021   1.000
    C2846   C    0.67657   0.54825   0.07575   1.000
    C2847   C    0.70393   0.56388   0.08856   1.000
    C2848   C    0.25573   0.89003   0.86132   1.000
    C2849   C    0.24014   0.89895   0.86890   1.000
    C2850   C    0.23122   0.89162   0.88471   1.000
    C2851   C    0.23802   0.87490   0.89262   1.000
    C2852   C    0.25363   0.86595   0.88502   1.000
    C2853   C    0.26272   0.87342   0.86930   1.000
    C2854   C    0.21451   0.90142   0.89198   1.000
    C2855   C    0.20841   0.89966   0.90959   1.000
    C2856   C    0.19154   0.90935   0.91668   1.000
    C2857   C    0.18969   0.91205   0.93599   1.000
    C2858   C    0.17373   0.92063   0.94327   1.000
    C2859   C    0.15927   0.92661   0.93136   1.000
    C2860   C    0.16108   0.92388   0.91204   1.000
    C2861   C    0.17698   0.91525   0.90476   1.000
    C2862   C    0.26223   0.89628   0.84921   1.000
    C2863   C    0.23507   0.91171   0.86242   1.000
    C2864   C    0.23116   0.86843   0.90442   1.000
    C2865   C    0.25838   0.85307   0.89144   1.000
    C2866   C    0.20755   0.91106   0.88258   1.000
    C2867   C    0.21640   0.89144   0.91951   1.000
    C2868   C    0.20063   0.90751   0.94547   1.000
    C2869   C    0.17270   0.92262   0.95822   1.000
    C2870   C    0.14992   0.92792   0.90260   1.000
    C2871   C    0.17749   0.91279   0.88988   1.000
    C2872   C    0.26008   0.36196   0.38955   1.000
    C2873   C    0.24479   0.36983   0.39873   1.000
    C2874   C    0.23631   0.38619   0.39201   1.000
    C2875   C    0.24368   0.39474   0.37590   1.000
    C2876   C    0.25905   0.38689   0.36666   1.000
    C2877   C    0.26755   0.37034   0.37333   1.000
    C2878   C    0.22027   0.39406   0.40256   1.000
    C2879   C    0.20749   0.40562   0.39506   1.000
    C2880   C    0.19116   0.41303   0.40551   1.000
    C2881   C    0.17564   0.41946   0.39533   1.000
    C2882   C    0.16008   0.42689   0.40445   1.000
    C2883   C    0.15972   0.42826   0.42403   1.000
    C2884   C    0.17522   0.42180   0.43429   1.000
    C2885   C    0.19083   0.41435   0.42515   1.000
    C2886   C    0.26593   0.34930   0.39541   1.000
    C2887   C    0.23949   0.36300   0.41117   1.000
    C2888   C    0.23792   0.40768   0.37054   1.000
    C2889   C    0.26424   0.39400   0.35439   1.000
    C2890   C    0.21848   0.38921   0.41677   1.000
    C2891   C    0.20833   0.40912   0.38038   1.000
    C2892   C    0.17550   0.41866   0.38022   1.000
    C2893   C    0.14825   0.43149   0.39615   1.000
    C2894   C    0.17545   0.42293   0.44937   1.000
    C2895   C    0.20271   0.41011   0.43352   1.000
    C2896   C    0.75424   0.88943   0.35887   1.000
    C2897   C    0.73853   0.89829   0.36627   1.000
    C2898   C    0.73087   0.89238   0.38328   1.000
    C2899   C    0.73902   0.87699   0.39256   1.000
    C2900   C    0.75479   0.86812   0.38516   1.000
    C2901   C    0.76267   0.87430   0.36827   1.000
    C2902   C    0.71415   0.90229   0.39046   1.000
    C2903   C    0.70888   0.90201   0.40842   1.000
    C2904   C    0.69225   0.91213   0.41558   1.000
    C2905   C    0.69096   0.91551   0.43484   1.000
    C2906   C    0.67530   0.92446   0.44230   1.000
    C2907   C    0.66056   0.93023   0.43064   1.000
    C2908   C    0.66182   0.92695   0.41136   1.000
    C2909   C    0.67742   0.91789   0.40390   1.000
    C2910   C    0.75964   0.89450   0.34571   1.000
    C2911   C    0.73239   0.90994   0.35870   1.000
    C2912   C    0.73318   0.87153   0.40537   1.000
    C2913   C    0.76074   0.85643   0.39275   1.000
    C2914   C    0.70654   0.91087   0.38057   1.000
    C2915   C    0.71747   0.89478   0.41860   1.000
    C2916   C    0.70210   0.91115   0.44418   1.000
    C2917   C    0.67467   0.92686   0.45722   1.000
    C2918   C    0.65045   0.93086   0.40212   1.000
    C2919   C    0.67745   0.91502   0.38910   1.000
    C2920   C    0.75716   0.39172   0.86132   1.000
    C2921   C    0.74194   0.40087   0.86940   1.000
    C2922   C    0.73413   0.39430   0.88610   1.000
    C2923   C    0.74216   0.37855   0.89483   1.000
    C2924   C    0.75741   0.36939   0.88676   1.000
    C2925   C    0.76509   0.37582   0.86986   1.000
    C2926   C    0.71812   0.40462   0.89424   1.000
    C2927   C    0.70580   0.39679   0.90597   1.000
    C2928   C    0.68954   0.40692   0.91384   1.000
    C2929   C    0.67428   0.39647   0.92028   1.000
    C2930   C    0.65876   0.40534   0.92807   1.000
    C2931   C    0.65822   0.42492   0.92976   1.000
    C2932   C    0.67353   0.43543   0.92344   1.000
    C2933   C    0.68909   0.42654   0.91564   1.000
    C2934   C    0.76258   0.39718   0.84833   1.000
    C2935   C    0.73614   0.41307   0.86247   1.000
    C2936   C    0.73698   0.37341   0.90806   1.000
    C2937   C    0.76320   0.35736   0.89391   1.000
    C2938   C    0.71594   0.41884   0.88951   1.000
    C2939   C    0.70698   0.38206   0.90929   1.000
    C2940   C    0.67429   0.38136   0.91914   1.000
    C2941   C    0.64706   0.39688   0.93257   1.000
    C2942   C    0.67360   0.45050   0.92485   1.000
    C2943   C    0.70082   0.43507   0.91143   1.000
    C2944   C    0.73967   0.89254   0.13557   1.000
    C2945   C    0.75473   0.90188   0.12747   1.000
    C2946   C    0.76423   0.89418   0.11222   1.000
    C2947   C    0.75802   0.87698   0.10494   1.000
    C2948   C    0.74290   0.86759   0.11308   1.000
    C2949   C    0.73357   0.87523   0.12855   1.000
    C2950   C    0.78009   0.90486   0.10418   1.000
    C2951   C    0.79348   0.89721   0.09357   1.000
    C2952   C    0.80968   0.90779   0.08607   1.000
    C2953   C    0.82540   0.89769   0.08011   1.000
    C2954   C    0.84085   0.90690   0.07258   1.000
    C2955   C    0.84091   0.92647   0.07071   1.000
    C2956   C    0.82527   0.93667   0.07675   1.000
    C2957   C    0.80974   0.92744   0.08423   1.000
    C2958   C    0.73280   0.89910   0.14728   1.000
    C2959   C    0.75904   0.91518   0.13326   1.000
    C2960   C    0.76456   0.87078   0.09284   1.000
    C2961   C    0.73859   0.85436   0.10721   1.000
    C2962   C    0.78118   0.91940   0.10813   1.000
    C2963   C    0.79325   0.88232   0.09099   1.000
    C2964   C    0.82577   0.88258   0.08131   1.000
    C2965   C    0.85282   0.89869   0.06825   1.000
    C2966   C    0.82485   0.95174   0.07523   1.000
    C2967   C    0.79775   0.93578   0.08809   1.000
    C2968   C    0.73773   0.36577   0.60785   1.000
    C2969   C    0.75282   0.37373   0.59848   1.000
    C2970   C    0.76335   0.38801   0.60672   1.000
    C2971   C    0.75810   0.39451   0.62454   1.000
    C2972   C    0.74290   0.38650   0.63397   1.000
    C2973   C    0.73263   0.37191   0.62579   1.000
    C2974   C    0.77934   0.39575   0.59599   1.000
    C2975   C    0.79354   0.40527   0.60368   1.000
    C2976   C    0.80996   0.41221   0.59300   1.000
    C2977   C    0.82600   0.41742   0.60302   1.000
    C2978   C    0.84168   0.42443   0.59379   1.000
    C2979   C    0.84171   0.42648   0.57427   1.000
    C2980   C    0.82580   0.42111   0.56413   1.000
    C2981   C    0.81002   0.41418   0.57338   1.000
    C2982   C    0.73006   0.35483   0.60084   1.000
    C2983   C    0.75637   0.36857   0.58472   1.000
    C2984   C    0.76546   0.40588   0.63120   1.000
    C2985   C    0.73933   0.39166   0.64769   1.000
    C2986   C    0.77982   0.39237   0.58129   1.000
    C2987   C    0.79377   0.40735   0.61863   1.000
    C2988   C    0.82642   0.41609   0.61809   1.000
    C2989   C    0.85384   0.42827   0.60196   1.000
    C2990   C    0.82538   0.42280   0.54910   1.000
    C2991   C    0.79785   0.41088   0.56506   1.000
    C2992   C    0.24628   0.85794   0.61300   1.000
    C2993   C    0.26206   0.86514   0.60417   1.000
    C2994   C    0.26914   0.88271   0.60909   1.000
    C2995   C    0.26031   0.89279   0.62348   1.000
    C2996   C    0.24445   0.88557   0.63233   1.000
    C2997   C    0.23715   0.86811   0.62709   1.000
    C2998   C    0.28595   0.88960   0.59917   1.000
    C2999   C    0.29098   0.90764   0.59844   1.000
    C3000   C    0.30768   0.91448   0.58824   1.000
    C3001   C    0.30901   0.93368   0.58430   1.000
    C3002   C    0.32475   0.94091   0.57533   1.000
    C3003   C    0.33950   0.92907   0.57007   1.000
    C3004   C    0.33816   0.90985   0.57381   1.000
    C3005   C    0.32251   0.90262   0.58292   1.000
    C3006   C    0.24137   0.84433   0.60870   1.000
    C3007   C    0.26871   0.85696   0.59332   1.000
    C3008   C    0.26567   0.90610   0.62817   1.000
    C3009   C    0.23791   0.89376   0.64319   1.000
    C3010   C    0.29381   0.87933   0.59139   1.000
    C3011   C    0.28219   0.91808   0.60492   1.000
    C3012   C    0.29789   0.94316   0.58829   1.000
    C3013   C    0.32546   0.95580   0.57259   1.000
    C3014   C    0.34955   0.90050   0.57028   1.000
    C3015   C    0.32248   0.88786   0.58619   1.000
    C3016   C    0.24433   0.35964   0.11281   1.000
    C3017   C    0.26026   0.36711   0.10435   1.000
    C3018   C    0.26767   0.38429   0.11020   1.000
    C3019   C    0.25889   0.39369   0.12507   1.000
    C3020   C    0.24291   0.38620   0.13356   1.000
    C3021   C    0.23536   0.36909   0.12750   1.000
    C3022   C    0.28478   0.39141   0.10075   1.000
    C3023   C    0.29053   0.40929   0.10133   1.000
    C3024   C    0.30753   0.41639   0.09162   1.000
    C3025   C    0.30944   0.43577   0.08897   1.000
    C3026   C    0.32534   0.44319   0.08036   1.000
    C3027   C    0.33980   0.43139   0.07420   1.000
    C3028   C    0.33794   0.41199   0.07682   1.000
    C3029   C    0.32207   0.40456   0.08550   1.000
    C3030   C    0.23920   0.34636   0.10779   1.000
    C3031   C    0.26679   0.35942   0.09309   1.000
    C3032   C    0.26439   0.40668   0.13045   1.000
    C3033   C    0.23651   0.39388   0.14486   1.000
    C3034   C    0.29237   0.38150   0.09227   1.000
    C3035   C    0.28209   0.41953   0.10857   1.000
    C3036   C    0.29857   0.44525   0.09358   1.000
    C3037   C    0.32630   0.45818   0.07845   1.000
    C3038   C    0.34901   0.40257   0.07259   1.000
    C3039   C    0.32158   0.38962   0.08774   1.000
    C3040   C    0.74302   0.14068   0.88767   1.000
    C3041   C    0.75871   0.13308   0.89652   1.000
    C3042   C    0.76709   0.11666   0.88985   1.000
    C3043   C    0.75948   0.10807   0.87388   1.000
    C3044   C    0.74373   0.11571   0.86499   1.000
    C3045   C    0.73530   0.13214   0.87174   1.000
    C3046   C    0.78408   0.10957   0.89956   1.000
    C3047   C    0.79045   0.09194   0.89823   1.000
    C3048   C    0.80749   0.08506   0.90804   1.000
    C3049   C    0.80974   0.06572   0.91072   1.000
    C3050   C    0.82580   0.05857   0.91936   1.000
    C3051   C    0.84006   0.07061   0.92545   1.000
    C3052   C    0.83783   0.08997   0.92283   1.000
    C3053   C    0.82180   0.09713   0.91414   1.000
    C3054   C    0.73705   0.15331   0.89341   1.000
    C3055   C    0.76432   0.14008   0.90869   1.000
    C3056   C    0.76580   0.09571   0.86793   1.000
    C3057   C    0.73836   0.10878   0.85270   1.000
    C3058   C    0.79108   0.11921   0.90884   1.000
    C3059   C    0.78256   0.08181   0.89028   1.000
    C3060   C    0.79903   0.05609   0.90610   1.000
    C3061   C    0.82708   0.04359   0.92128   1.000
    C3062   C    0.84876   0.09956   0.92699   1.000
    C3063   C    0.82101   0.11205   0.91179   1.000
    C3064   C    0.73935   0.60831   0.36271   1.000
    C3065   C    0.75476   0.59899   0.37034   1.000
    C3066   C    0.76439   0.60642   0.38568   1.000
    C3067   C    0.75801   0.62333   0.39348   1.000
    C3068   C    0.74257   0.63268   0.38583   1.000
    C3069   C    0.73304   0.62532   0.37032   1.000
    C3070   C    0.78054   0.59580   0.39337   1.000
    C3071   C    0.79400   0.60354   0.40386   1.000
    C3072   C    0.81032   0.59309   0.41145   1.000
    C3073   C    0.82585   0.60335   0.41761   1.000
    C3074   C    0.84136   0.59431   0.42536   1.000
    C3075   C    0.84169   0.57475   0.42724   1.000
    C3076   C    0.82625   0.56439   0.42100   1.000
    C3077   C    0.81065   0.57345   0.41330   1.000
    C3078   C    0.73240   0.60202   0.35089   1.000
    C3079   C    0.75922   0.58591   0.36416   1.000
    C3080   C    0.76461   0.62927   0.40569   1.000
    C3081   C    0.73814   0.64565   0.39218   1.000
    C3082   C    0.78169   0.58126   0.38938   1.000
    C3083   C    0.79363   0.61844   0.40647   1.000
    C3084   C    0.82599   0.61846   0.41642   1.000
    C3085   C    0.85317   0.60265   0.42980   1.000
    C3086   C    0.82606   0.54932   0.42251   1.000
    C3087   C    0.79881   0.56500   0.40927   1.000
    C3088   C    0.23971   0.10839   0.35948   1.000
    C3089   C    0.25474   0.09880   0.36755   1.000
    C3090   C    0.26351   0.10561   0.38368   1.000
    C3091   C    0.25660   0.12214   0.39183   1.000
    C3092   C    0.24153   0.13175   0.38375   1.000
    C3093   C    0.23290   0.12504   0.36742   1.000
    C3094   C    0.27940   0.09481   0.39173   1.000
    C3095   C    0.29240   0.10232   0.40296   1.000
    C3096   C    0.30864   0.09180   0.41067   1.000
    C3097   C    0.32394   0.10202   0.41745   1.000
    C3098   C    0.33940   0.09291   0.42522   1.000
    C3099   C    0.33993   0.07329   0.42653   1.000
    C3100   C    0.32469   0.06299   0.41972   1.000
    C3101   C    0.30914   0.07212   0.41196   1.000
    C3102   C    0.23351   0.10264   0.34697   1.000
    C3103   C    0.25964   0.08603   0.36105   1.000
    C3104   C    0.26251   0.12758   0.40461   1.000
    C3105   C    0.23663   0.14438   0.39044   1.000
    C3106   C    0.28086   0.08044   0.38730   1.000
    C3107   C    0.29177   0.11712   0.40603   1.000
    C3108   C    0.32395   0.11716   0.41670   1.000
    C3109   C    0.35105   0.10124   0.43010   1.000
    C3110   C    0.32461   0.04788   0.42079   1.000
    C3111   C    0.29747   0.06369   0.40744   1.000
    C3112   C    0.24460   0.60980   0.86035   1.000
    C3113   C    0.26037   0.60103   0.86788   1.000
    C3114   C    0.26927   0.60835   0.88370   1.000
    C3115   C    0.26230   0.62493   0.89164   1.000
    C3116   C    0.24651   0.63372   0.88410   1.000
    C3117   C    0.23741   0.62623   0.86839   1.000
    C3118   C    0.28611   0.59867   0.89099   1.000
    C3119   C    0.29221   0.60034   0.90862   1.000
    C3120   C    0.30907   0.59063   0.91585   1.000
    C3121   C    0.31103   0.58816   0.93521   1.000
    C3122   C    0.32696   0.57955   0.94263   1.000
    C3123   C    0.34129   0.57328   0.93081   1.000
    C3124   C    0.33939   0.57577   0.91145   1.000
    C3125   C    0.32352   0.58445   0.90403   1.000
    C3126   C    0.23812   0.60356   0.84823   1.000
    C3127   C    0.26558   0.58841   0.86136   1.000
    C3128   C    0.26915   0.63142   0.90342   1.000
    C3129   C    0.24160   0.64645   0.89057   1.000
    C3130   C    0.29308   0.58908   0.88162   1.000
    C3131   C    0.28419   0.60851   0.91849   1.000
    C3132   C    0.30018   0.59289   0.94463   1.000
    C3133   C    0.32808   0.57776   0.95761   1.000
    C3134   C    0.35045   0.57149   0.90206   1.000
    C3135   C    0.32294   0.58668   0.88910   1.000
    C3136   C    0.10761   0.25900   0.13623   1.000
    C3137   C    0.09834   0.24377   0.12834   1.000
    C3138   C    0.10582   0.23443   0.11287   1.000
    C3139   C    0.12274   0.24093   0.10520   1.000
    C3140   C    0.13204   0.25620   0.11311   1.000
    C3141   C    0.12462   0.26543   0.12877   1.000
    C3142   C    0.09525   0.21842   0.10496   1.000
    C3143   C    0.10303   0.20510   0.09431   1.000
    C3144   C    0.09260   0.18884   0.08672   1.000
    C3145   C    0.10284   0.17320   0.08078   1.000
    C3146   C    0.09381   0.15771   0.07314   1.000
    C3147   C    0.07425   0.15751   0.07113   1.000
    C3148   C    0.06392   0.17310   0.07711   1.000
    C3149   C    0.07298   0.18867   0.08472   1.000
    C3150   C    0.10126   0.26571   0.14814   1.000
    C3151   C    0.08527   0.23920   0.13444   1.000
    C3152   C    0.12873   0.23454   0.09292   1.000
    C3153   C    0.14501   0.26074   0.10687   1.000
    C3154   C    0.08074   0.21719   0.10897   1.000
    C3155   C    0.11791   0.20549   0.09168   1.000
    C3156   C    0.11794   0.17293   0.08210   1.000
    C3157   C    0.10214   0.14579   0.06890   1.000
    C3158   C    0.04887   0.17343   0.07548   1.000
    C3159   C    0.06456   0.20061   0.08857   1.000
    C3160   C    0.14120   0.75320   0.61603   1.000
    C3161   C    0.13391   0.73735   0.60743   1.000
    C3162   C    0.11594   0.73095   0.61180   1.000
    C3163   C    0.10552   0.74057   0.62544   1.000
    C3164   C    0.11285   0.75653   0.63407   1.000
    C3165   C    0.13073   0.76312   0.62933   1.000
    C3166   C    0.10908   0.71401   0.60204   1.000
    C3167   C    0.09108   0.70883   0.60123   1.000
    C3168   C    0.08447   0.69204   0.59097   1.000
    C3169   C    0.06534   0.69056   0.58679   1.000
    C3170   C    0.05836   0.67482   0.57760   1.000
    C3171   C    0.07040   0.66022   0.57235   1.000
    C3172   C    0.08954   0.66168   0.57639   1.000
    C3173   C    0.09650   0.67732   0.58573   1.000
    C3174   C    0.15516   0.75751   0.61222   1.000
    C3175   C    0.14237   0.73011   0.59719   1.000
    C3176   C    0.09183   0.73582   0.62968   1.000
    C3177   C    0.10443   0.76375   0.64432   1.000
    C3178   C    0.11941   0.70609   0.59440   1.000
    C3179   C    0.08051   0.71755   0.60760   1.000
    C3180   C    0.05572   0.70159   0.59071   1.000
    C3181   C    0.04353   0.67403   0.57464   1.000
    C3182   C    0.09903   0.65040   0.57287   1.000
    C3183   C    0.11121   0.67742   0.58919   1.000
    C3184   C    0.64078   0.25301   0.61327   1.000
    C3185   C    0.63313   0.23747   0.60436   1.000
    C3186   C    0.61579   0.23026   0.60990   1.000
    C3187   C    0.60640   0.23872   0.62495   1.000
    C3188   C    0.61405   0.25433   0.63387   1.000
    C3189   C    0.63129   0.26175   0.62807   1.000
    C3190   C    0.60843   0.21364   0.59999   1.000
    C3191   C    0.59039   0.20851   0.60015   1.000
    C3192   C    0.58314   0.19185   0.59018   1.000
    C3193   C    0.56384   0.19061   0.58677   1.000
    C3194   C    0.55629   0.17492   0.57795   1.000
    C3195   C    0.56791   0.16013   0.57235   1.000
    C3196   C    0.58722   0.16133   0.57569   1.000
    C3197   C    0.59476   0.17694   0.58461   1.000
    C3198   C    0.65417   0.25805   0.60849   1.000
    C3199   C    0.64079   0.23110   0.59298   1.000
    C3200   C    0.59331   0.23326   0.63012   1.000
    C3201   C    0.60636   0.26053   0.64528   1.000
    C3202   C    0.61829   0.20592   0.59155   1.000
    C3203   C    0.58024   0.21718   0.60723   1.000
    C3204   C    0.55454   0.20180   0.59099   1.000
    C3205   C    0.54135   0.17435   0.57550   1.000
    C3206   C    0.59643   0.14992   0.57190   1.000
    C3207   C    0.60959   0.17691   0.58752   1.000
    C3208   C    0.60892   0.76070   0.13843   1.000
    C3209   C    0.59976   0.74541   0.13049   1.000
    C3210   C    0.60718   0.73633   0.11483   1.000
    C3211   C    0.62390   0.74314   0.10703   1.000
    C3212   C    0.63309   0.75846   0.11499   1.000
    C3213   C    0.62574   0.76744   0.13082   1.000
    C3214   C    0.59672   0.72027   0.10685   1.000
    C3215   C    0.60448   0.70728   0.09579   1.000
    C3216   C    0.59416   0.69100   0.08808   1.000
    C3217   C    0.60452   0.67565   0.08157   1.000
    C3218   C    0.59556   0.66013   0.07388   1.000
    C3219   C    0.57597   0.65961   0.07239   1.000
    C3220   C    0.56554   0.67493   0.07886   1.000
    C3221   C    0.57451   0.69052   0.08652   1.000
    C3222   C    0.60263   0.76721   0.15049   1.000
    C3223   C    0.58682   0.74060   0.13670   1.000
    C3224   C    0.62985   0.73697   0.09462   1.000
    C3225   C    0.64593   0.76322   0.10863   1.000
    C3226   C    0.58231   0.71875   0.11109   1.000
    C3227   C    0.61929   0.70793   0.09287   1.000
    C3228   C    0.61964   0.67562   0.08252   1.000
    C3229   C    0.60398   0.64843   0.06926   1.000
    C3230   C    0.55044   0.67502   0.07764   1.000
    C3231   C    0.56598   0.70224   0.09079   1.000
    C3232   C    0.85890   0.25625   0.88563   1.000
    C3233   C    0.86633   0.24033   0.89425   1.000
    C3234   C    0.88348   0.23281   0.88846   1.000
    C3235   C    0.89291   0.24141   0.87349   1.000
    C3236   C    0.88547   0.25739   0.86485   1.000
    C3237   C    0.86839   0.26507   0.87086   1.000
    C3238   C    0.89059   0.21578   0.89809   1.000
    C3239   C    0.90852   0.21016   0.89772   1.000
    C3240   C    0.91558   0.19321   0.90758   1.000
    C3241   C    0.93490   0.19147   0.91069   1.000
    C3242   C    0.94228   0.17559   0.91947   1.000
    C3243   C    0.93049   0.16103   0.92533   1.000
    C3244   C    0.91115   0.16273   0.92226   1.000
    C3245   C    0.90377   0.17856   0.91338   1.000
    C3246   C    0.84564   0.26149   0.89061   1.000
    C3247   C    0.85863   0.23390   0.90558   1.000
    C3248   C    0.90586   0.23576   0.86814   1.000
    C3249   C    0.89317   0.26365   0.85347   1.000
    C3250   C    0.88065   0.20817   0.90654   1.000
    C3251   C    0.91877   0.21865   0.89057   1.000
    C3252   C    0.94435   0.20244   0.90629   1.000
    C3253   C    0.95724   0.17470   0.92172   1.000
    C3254   C    0.90177   0.15154   0.92625   1.000
    C3255   C    0.88889   0.17892   0.91073   1.000
    C3256   C    0.85753   0.75610   0.38619   1.000
    C3257   C    0.86477   0.74026   0.39509   1.000
    C3258   C    0.88229   0.73301   0.39013   1.000
    C3259   C    0.89230   0.74181   0.37563   1.000
    C3260   C    0.88504   0.75773   0.36670   1.000
    C3261   C    0.86759   0.76515   0.37194   1.000
    C3262   C    0.88916   0.71607   0.40012   1.000
    C3263   C    0.90713   0.71060   0.40058   1.000
    C3264   C    0.91395   0.69381   0.41092   1.000
    C3265   C    0.93320   0.69216   0.41450   1.000
    C3266   C    0.94043   0.67640   0.42361   1.000
    C3267   C    0.92856   0.66185   0.42936   1.000
    C3268   C    0.90929   0.66351   0.42596   1.000
    C3269   C    0.90205   0.67923   0.41674   1.000
    C3270   C    0.84395   0.76109   0.39053   1.000
    C3271   C    0.85662   0.73368   0.40602   1.000
    C3272   C    0.90558   0.73638   0.37091   1.000
    C3273   C    0.89316   0.76418   0.35572   1.000
    C3274   C    0.87893   0.70841   0.40817   1.000
    C3275   C    0.91758   0.71911   0.39376   1.000
    C3276   C    0.94273   0.70308   0.41015   1.000
    C3277   C    0.95535   0.67554   0.42611   1.000
    C3278   C    0.89987   0.65233   0.42988   1.000
    C3279   C    0.88722   0.67952   0.41381   1.000
    C3280   C    0.39192   0.25845   0.36196   1.000
    C3281   C    0.40127   0.24332   0.37006   1.000
    C3282   C    0.39426   0.23470   0.38618   1.000
    C3283   C    0.37783   0.24183   0.39431   1.000
    C3284   C    0.36845   0.25697   0.38619   1.000
    C3285   C    0.37535   0.26547   0.36988   1.000
    C3286   C    0.40470   0.21869   0.39425   1.000
    C3287   C    0.39677   0.20575   0.40523   1.000
    C3288   C    0.40696   0.18942   0.41298   1.000
    C3289   C    0.39654   0.17391   0.41890   1.000
    C3290   C    0.40542   0.15829   0.42657   1.000
    C3291   C    0.42495   0.15788   0.42862   1.000
    C3292   C    0.43545   0.17336   0.42274   1.000
    C3293   C    0.42655   0.18906   0.41510   1.000
    C3294   C    0.39784   0.26461   0.34951   1.000
    C3295   C    0.41399   0.23823   0.36363   1.000
    C3296   C    0.37229   0.23601   0.40711   1.000
    C3297   C    0.35585   0.26200   0.39282   1.000
    C3298   C    0.41913   0.21705   0.39006   1.000
    C3299   C    0.38191   0.20646   0.40795   1.000
    C3300   C    0.38145   0.17384   0.41749   1.000
    C3301   C    0.39700   0.14644   0.43077   1.000
    C3302   C    0.45050   0.17348   0.42442   1.000
    C3303   C    0.43507   0.20094   0.41129   1.000
    C3304   C    0.35975   0.75647   0.88870   1.000
    C3305   C    0.36741   0.74068   0.89735   1.000
    C3306   C    0.38421   0.73288   0.89097   1.000
    C3307   C    0.39305   0.74103   0.87540   1.000
    C3308   C    0.38539   0.75686   0.86674   1.000
    C3309   C    0.36866   0.76484   0.87331   1.000
    C3310   C    0.39158   0.71599   0.90061   1.000
    C3311   C    0.40943   0.71024   0.89957   1.000
    C3312   C    0.41672   0.69339   0.90936   1.000
    C3313   C    0.43612   0.69158   0.91187   1.000
    C3314   C    0.44368   0.67575   0.92058   1.000
    C3315   C    0.43197   0.66136   0.92697   1.000
    C3316   C    0.41257   0.66311   0.92448   1.000
    C3317   C    0.40501   0.67887   0.91567   1.000
    C3318   C    0.34680   0.76198   0.89417   1.000
    C3319   C    0.36018   0.73459   0.90916   1.000
    C3320   C    0.40569   0.73512   0.86961   1.000
    C3321   C    0.39263   0.76274   0.85486   1.000
    C3322   C    0.38195   0.70861   0.90959   1.000
    C3323   C    0.41944   0.71855   0.89190   1.000
    C3324   C    0.44548   0.70246   0.90707   1.000
    C3325   C    0.45869   0.67477   0.92237   1.000
    C3326   C    0.40326   0.65202   0.92888   1.000
    C3327   C    0.39006   0.67929   0.91346   1.000
    C3328   C    0.14217   0.74400   0.88627   1.000
    C3329   C    0.13474   0.75964   0.89522   1.000
    C3330   C    0.11702   0.76657   0.89036   1.000
    C3331   C    0.10702   0.75768   0.87594   1.000
    C3332   C    0.11446   0.74196   0.86697   1.000
    C3333   C    0.13209   0.73484   0.87212   1.000
    C3334   C    0.10993   0.78331   0.90035   1.000
    C3335   C    0.09186   0.78842   0.90082   1.000
    C3336   C    0.08480   0.80510   0.91100   1.000
    C3337   C    0.06551   0.80659   0.91429   1.000
    C3338   C    0.05807   0.82229   0.92321   1.000
    C3339   C    0.06979   0.83687   0.92908   1.000
    C3340   C    0.08910   0.83540   0.92594   1.000
    C3341   C    0.09654   0.81978   0.91689   1.000
    C3342   C    0.15590   0.73923   0.89049   1.000
    C3343   C    0.14288   0.76633   0.90608   1.000
    C3344   C    0.09359   0.76288   0.87128   1.000
    C3345   C    0.10632   0.73539   0.85608   1.000
    C3346   C    0.12008   0.79111   0.90835   1.000
    C3347   C    0.08152   0.77975   0.89405   1.000
    C3348   C    0.05611   0.79559   0.90987   1.000
    C3349   C    0.04312   0.82306   0.92550   1.000
    C3350   C    0.09840   0.84664   0.92997   1.000
    C3351   C    0.11139   0.81964   0.91417   1.000
    C3352   C    0.10544   0.23471   0.36853   1.000
    C3353   C    0.09658   0.25029   0.37621   1.000
    C3354   C    0.10620   0.26236   0.38823   1.000
    C3355   C    0.12499   0.25828   0.39267   1.000
    C3356   C    0.13391   0.24265   0.38493   1.000
    C3357   C    0.12426   0.23067   0.37273   1.000
    C3358   C    0.09583   0.27859   0.39606   1.000
    C3359   C    0.10402   0.29345   0.40403   1.000
    C3360   C    0.09370   0.30983   0.41167   1.000
    C3361   C    0.10407   0.32563   0.41693   1.000
    C3362   C    0.09526   0.34127   0.42458   1.000
    C3363   C    0.07580   0.34154   0.42716   1.000
    C3364   C    0.06531   0.32589   0.42179   1.000
    C3365   C    0.07413   0.31013   0.41426   1.000
    C3366   C    0.09739   0.22592   0.35930   1.000
    C3367   C    0.08208   0.25295   0.37264   1.000
    C3368   C    0.13286   0.26683   0.40229   1.000
    C3369   C    0.14833   0.23998   0.38864   1.000
    C3370   C    0.08083   0.27838   0.39438   1.000
    C3371   C    0.11911   0.29414   0.40455   1.000
    C3372   C    0.11911   0.32588   0.41515   1.000
    C3373   C    0.10368   0.35324   0.42840   1.000
    C3374   C    0.05031   0.32567   0.42383   1.000
    C3375   C    0.06548   0.29826   0.41087   1.000
    C3376   C    0.60830   0.74012   0.36624   1.000
    C3377   C    0.59893   0.75510   0.37443   1.000
    C3378   C    0.60707   0.76506   0.38916   1.000
    C3379   C    0.62473   0.75937   0.39588   1.000
    C3380   C    0.63415   0.74432   0.38764   1.000
    C3381   C    0.62609   0.73459   0.37263   1.000
    C3382   C    0.59642   0.78095   0.39714   1.000
    C3383   C    0.60424   0.79475   0.40705   1.000
    C3384   C    0.59369   0.81111   0.41423   1.000
    C3385   C    0.60379   0.82705   0.41950   1.000
    C3386   C    0.59462   0.84272   0.42661   1.000
    C3387   C    0.57510   0.84280   0.42868   1.000
    C3388   C    0.56489   0.82696   0.42334   1.000
    C3389   C    0.57407   0.81119   0.41633   1.000
    C3390   C    0.60138   0.73286   0.35497   1.000
    C3391   C    0.58527   0.75901   0.36911   1.000
    C3392   C    0.63127   0.76626   0.40761   1.000
    C3393   C    0.64777   0.74041   0.39301   1.000
    C3394   C    0.58173   0.78174   0.39360   1.000
    C3395   C    0.61922   0.79476   0.40923   1.000
    C3396   C    0.61886   0.82740   0.41807   1.000
    C3397   C    0.60282   0.85484   0.43045   1.000
    C3398   C    0.54985   0.82661   0.42507   1.000
    C3399   C    0.56573   0.79906   0.41301   1.000
    C3400   C    0.60505   0.23597   0.86976   1.000
    C3401   C    0.59546   0.25060   0.87834   1.000
    C3402   C    0.60483   0.26300   0.89020   1.000
    C3403   C    0.62401   0.26018   0.89372   1.000
    C3404   C    0.63363   0.24547   0.88515   1.000
    C3405   C    0.62428   0.23326   0.87296   1.000
    C3406   C    0.59397   0.27830   0.89891   1.000
    C3407   C    0.60162   0.29459   0.90407   1.000
    C3408   C    0.59106   0.31042   0.91241   1.000
    C3409   C    0.60130   0.32578   0.91900   1.000
    C3410   C    0.59225   0.34107   0.92701   1.000
    C3411   C    0.57269   0.34141   0.92861   1.000
    C3412   C    0.56234   0.32623   0.92183   1.000
    C3413   C    0.57138   0.31087   0.91382   1.000
    C3414   C    0.59722   0.22677   0.86071   1.000
    C3415   C    0.58066   0.25235   0.87554   1.000
    C3416   C    0.63159   0.26909   0.90328   1.000
    C3417   C    0.64839   0.24378   0.88805   1.000
    C3418   C    0.57913   0.27604   0.90031   1.000
    C3419   C    0.61645   0.29668   0.90194   1.000
    C3420   C    0.61641   0.32596   0.91798   1.000
    C3421   C    0.60058   0.35276   0.93180   1.000
    C3422   C    0.54724   0.32614   0.92294   1.000
    C3423   C    0.56274   0.29962   0.90875   1.000
    C3424   C    0.89280   0.73791   0.13575   1.000
    C3425   C    0.90192   0.75316   0.12767   1.000
    C3426   C    0.89375   0.76306   0.11281   1.000
    C3427   C    0.87633   0.75706   0.10589   1.000
    C3428   C    0.86717   0.74180   0.11400   1.000
    C3429   C    0.87523   0.73207   0.12911   1.000
    C3430   C    0.90408   0.77918   0.10477   1.000
    C3431   C    0.89595   0.79280   0.09467   1.000
    C3432   C    0.90610   0.80918   0.08691   1.000
    C3433   C    0.89560   0.82469   0.08089   1.000
    C3434   C    0.90437   0.84032   0.07316   1.000
    C3435   C    0.92391   0.84081   0.07123   1.000
    C3436   C    0.93449   0.82536   0.07724   1.000
    C3437   C    0.92571   0.80964   0.08488   1.000
    C3438   C    0.89963   0.73080   0.14723   1.000
    C3439   C    0.91541   0.75732   0.13316   1.000
    C3440   C    0.86978   0.76384   0.09404   1.000
    C3441   C    0.85378   0.73768   0.10833   1.000
    C3442   C    0.91876   0.78017   0.10823   1.000
    C3443   C    0.88097   0.79256   0.09258   1.000
    C3444   C    0.88051   0.82475   0.08221   1.000
    C3445   C    0.89587   0.85213   0.06886   1.000
    C3446   C    0.94955   0.82529   0.07567   1.000
    C3447   C    0.93437   0.79785   0.08877   1.000
    C3448   C    0.85731   0.24674   0.61270   1.000
    C3449   C    0.86486   0.26229   0.60362   1.000
    C3450   C    0.88263   0.26902   0.60844   1.000
    C3451   C    0.89260   0.26000   0.62288   1.000
    C3452   C    0.88506   0.24439   0.63193   1.000
    C3453   C    0.86735   0.23754   0.62692   1.000
    C3454   C    0.88985   0.28574   0.59847   1.000
    C3455   C    0.90797   0.29061   0.59805   1.000
    C3456   C    0.91517   0.30739   0.58814   1.000
    C3457   C    0.93443   0.30858   0.58456   1.000
    C3458   C    0.94197   0.32433   0.57579   1.000
    C3459   C    0.93037   0.33927   0.57038   1.000
    C3460   C    0.91110   0.33814   0.57390   1.000
    C3461   C    0.90357   0.32246   0.58279   1.000
    C3462   C    0.84367   0.24187   0.60837   1.000
    C3463   C    0.85679   0.26904   0.59268   1.000
    C3464   C    0.90604   0.26507   0.62754   1.000
    C3465   C    0.89306   0.23788   0.64303   1.000
    C3466   C    0.87976   0.29380   0.59056   1.000
    C3467   C    0.91825   0.28164   0.60465   1.000
    C3468   C    0.94372   0.29728   0.58862   1.000
    C3469   C    0.95687   0.32483   0.57321   1.000
    C3470   C    0.90191   0.34965   0.57025   1.000
    C3471   C    0.88878   0.32255   0.58580   1.000
    C3472   C    0.39277   0.74092   0.63986   1.000
    C3473   C    0.40233   0.75601   0.63197   1.000
    C3474   C    0.39562   0.76475   0.61572   1.000
    C3475   C    0.37930   0.75775   0.60723   1.000
    C3476   C    0.36974   0.74265   0.61513   1.000
    C3477   C    0.37631   0.73408   0.63158   1.000
    C3478   C    0.40623   0.78072   0.60784   1.000
    C3479   C    0.39844   0.79380   0.59681   1.000
    C3480   C    0.40872   0.81002   0.58899   1.000
    C3481   C    0.39832   0.82537   0.58247   1.000
    C3482   C    0.40722   0.84080   0.57454   1.000
    C3483   C    0.42677   0.84121   0.57281   1.000
    C3484   C    0.43726   0.82590   0.57936   1.000
    C3485   C    0.42835   0.81039   0.58727   1.000
    C3486   C    0.39830   0.73477   0.65253   1.000
    C3487   C    0.41494   0.76100   0.63870   1.000
    C3488   C    0.37401   0.76361   0.59432   1.000
    C3489   C    0.35732   0.73763   0.60814   1.000
    C3490   C    0.42066   0.78214   0.61215   1.000
    C3491   C    0.38358   0.79321   0.59398   1.000
    C3492   C    0.38321   0.82547   0.58356   1.000
    C3493   C    0.39878   0.85252   0.56986   1.000
    C3494   C    0.45234   0.82576   0.57796   1.000
    C3495   C    0.43688   0.79865   0.59158   1.000
    C3496   C    0.35787   0.24642   0.11117   1.000
    C3497   C    0.36536   0.26225   0.10255   1.000
    C3498   C    0.38257   0.26958   0.10839   1.000
    C3499   C    0.39200   0.26092   0.12338   1.000
    C3500   C    0.38451   0.24505   0.13200   1.000
    C3501   C    0.36738   0.23754   0.12596   1.000
    C3502   C    0.38975   0.28656   0.09887   1.000
    C3503   C    0.40771   0.29193   0.09937   1.000
    C3504   C    0.41483   0.30899   0.08993   1.000
    C3505   C    0.43415   0.31063   0.08692   1.000
    C3506   C    0.44158   0.32667   0.07862   1.000
    C3507   C    0.42981   0.34144   0.07312   1.000
    C3508   C    0.41048   0.33985   0.07607   1.000
    C3509   C    0.40305   0.32388   0.08450   1.000
    C3510   C    0.34457   0.24129   0.10619   1.000
    C3511   C    0.35768   0.26875   0.09120   1.000
    C3512   C    0.40498   0.26644   0.12878   1.000
    C3513   C    0.39224   0.23874   0.14339   1.000
    C3514   C    0.37983   0.29437   0.09050   1.000
    C3515   C    0.41793   0.28321   0.10638   1.000
    C3516   C    0.44356   0.29945   0.09106   1.000
    C3517   C    0.45653   0.32753   0.07644   1.000
    C3518   C    0.40115   0.35123   0.07234   1.000
    C3519   C    0.38818   0.32359   0.08712   1.000
    C3520   C    0.10907   0.14156   0.74260   1.000
    C3521   C    0.10015   0.13403   0.75828   1.000
    C3522   C    0.10714   0.11792   0.76709   1.000
    C3523   C    0.12358   0.10972   0.76016   1.000
    C3524   C    0.13251   0.11718   0.74451   1.000
    C3525   C    0.12539   0.13319   0.73536   1.000
    C3526   C    0.09738   0.11052   0.78381   1.000
    C3527   C    0.09888   0.09269   0.78960   1.000
    C3528   C    0.08953   0.08521   0.80652   1.000
    C3529   C    0.08731   0.06577   0.80830   1.000
    C3530   C    0.07908   0.05805   0.82423   1.000
    C3531   C    0.07294   0.06962   0.83881   1.000
    C3532   C    0.07527   0.08907   0.83712   1.000
    C3533   C    0.08354   0.09679   0.82122   1.000
    C3534   C    0.10302   0.15390   0.73626   1.000
    C3535   C    0.08764   0.14079   0.76348   1.000
    C3536   C    0.12989   0.09774   0.76696   1.000
    C3537   C    0.14511   0.11028   0.73983   1.000
    C3538   C    0.08808   0.11999   0.79103   1.000
    C3539   C    0.10676   0.08282   0.78131   1.000
    C3540   C    0.09193   0.05651   0.79728   1.000
    C3541   C    0.07738   0.04302   0.82510   1.000
    C3542   C    0.07109   0.09831   0.84833   1.000
    C3543   C    0.08559   0.11176   0.82079   1.000
    C3544   C    0.13557   0.60888   0.24056   1.000
    C3545   C    0.12736   0.59978   0.25570   1.000
    C3546   C    0.11151   0.60722   0.26439   1.000
    C3547   C    0.10377   0.62395   0.25736   1.000
    C3548   C    0.11197   0.63310   0.24211   1.000
    C3549   C    0.12807   0.62574   0.23345   1.000
    C3550   C    0.10345   0.59678   0.28040   1.000
    C3551   C    0.09248   0.60455   0.29341   1.000
    C3552   C    0.08536   0.59420   0.30993   1.000
    C3553   C    0.07969   0.60449   0.32558   1.000
    C3554   C    0.07274   0.59545   0.34141   1.000
    C3555   C    0.07116   0.57586   0.34192   1.000
    C3556   C    0.07683   0.56549   0.32630   1.000
    C3557   C    0.08374   0.57455   0.31041   1.000
    C3558   C    0.14781   0.60242   0.23457   1.000
    C3559   C    0.13356   0.58687   0.26074   1.000
    C3560   C    0.09123   0.62990   0.26333   1.000
    C3561   C    0.10554   0.64590   0.23717   1.000
    C3562   C    0.10784   0.58238   0.28205   1.000
    C3563   C    0.08944   0.61936   0.29268   1.000
    C3564   C    0.08074   0.61960   0.32562   1.000
    C3565   C    0.06869   0.60380   0.35333   1.000
    C3566   C    0.07548   0.55040   0.32622   1.000
    C3567   C    0.08737   0.56609   0.29846   1.000
    C3568   C    0.64090   0.11052   0.24452   1.000
    C3569   C    0.63331   0.10176   0.26019   1.000
    C3570   C    0.61705   0.10869   0.26857   1.000
    C3571   C    0.60869   0.12493   0.26116   1.000
    C3572   C    0.61629   0.13376   0.24547   1.000
    C3573   C    0.63250   0.12666   0.23680   1.000
    C3574   C    0.60976   0.09894   0.28533   1.000
    C3575   C    0.59196   0.10012   0.29105   1.000
    C3576   C    0.58477   0.09021   0.30777   1.000
    C3577   C    0.56547   0.08700   0.30921   1.000
    C3578   C    0.55804   0.07816   0.32495   1.000
    C3579   C    0.56977   0.07242   0.33966   1.000
    C3580   C    0.58908   0.07563   0.33827   1.000
    C3581   C    0.59651   0.08452   0.32256   1.000
    C3582   C    0.65340   0.10445   0.23862   1.000
    C3583   C    0.64016   0.08939   0.26573   1.000
    C3584   C    0.59649   0.13110   0.26760   1.000
    C3585   C    0.60934   0.14619   0.24029   1.000
    C3586   C    0.61934   0.08970   0.29259   1.000
    C3587   C    0.58194   0.10795   0.28278   1.000
    C3588   C    0.55610   0.09134   0.29809   1.000
    C3589   C    0.54310   0.07580   0.32563   1.000
    C3590   C    0.59839   0.07176   0.34959   1.000
    C3591   C    0.61136   0.08731   0.32237   1.000
    C3592   C    0.61000   0.63943   0.74071   1.000
    C3593   C    0.60045   0.63141   0.75574   1.000
    C3594   C    0.60766   0.61563   0.76499   1.000
    C3595   C    0.62455   0.60781   0.75861   1.000
    C3596   C    0.63411   0.61584   0.74360   1.000
    C3597   C    0.62699   0.63177   0.73443   1.000
    C3598   C    0.59690   0.60749   0.78077   1.000
    C3599   C    0.60463   0.59657   0.79399   1.000
    C3600   C    0.59418   0.58843   0.80997   1.000
    C3601   C    0.60442   0.58174   0.82534   1.000
    C3602   C    0.59539   0.57358   0.84057   1.000
    C3603   C    0.57583   0.57180   0.84078   1.000
    C3604   C    0.56550   0.57846   0.82542   1.000
    C3605   C    0.57455   0.58659   0.81011   1.000
    C3606   C    0.60392   0.65159   0.73403   1.000
    C3607   C    0.58738   0.63763   0.76021   1.000
    C3608   C    0.63033   0.59529   0.76487   1.000
    C3609   C    0.64702   0.60935   0.73915   1.000
    C3610   C    0.58235   0.61145   0.78186   1.000
    C3611   C    0.61954   0.59404   0.79373   1.000
    C3612   C    0.61952   0.58290   0.82562   1.000
    C3613   C    0.60372   0.56883   0.85231   1.000
    C3614   C    0.55043   0.57704   0.82510   1.000
    C3615   C    0.56611   0.59103   0.79836   1.000
    C3616   C    0.86361   0.89182   0.73817   1.000
    C3617   C    0.87161   0.90118   0.75327   1.000
    C3618   C    0.88684   0.89346   0.76294   1.000
    C3619   C    0.89419   0.87621   0.75691   1.000
    C3620   C    0.88617   0.86681   0.74176   1.000
    C3621   C    0.87073   0.87447   0.73222   1.000
    C3622   C    0.89481   0.90410   0.77885   1.000
    C3623   C    0.90504   0.89624   0.79250   1.000
    C3624   C    0.91256   0.90671   0.80874   1.000
    C3625   C    0.91811   0.89652   0.82459   1.000
    C3626   C    0.92569   0.90557   0.84008   1.000
    C3627   C    0.92801   0.92508   0.84008   1.000
    C3628   C    0.92239   0.93538   0.82431   1.000
    C3629   C    0.91485   0.92630   0.80873   1.000
    C3630   C    0.85186   0.89836   0.73121   1.000
    C3631   C    0.86576   0.91451   0.75748   1.000
    C3632   C    0.90630   0.87002   0.76358   1.000
    C3633   C    0.89216   0.85358   0.73757   1.000
    C3634   C    0.89112   0.91874   0.77973   1.000
    C3635   C    0.90732   0.88128   0.79243   1.000
    C3636   C    0.91655   0.88145   0.82501   1.000
    C3637   C    0.92967   0.89729   0.85215   1.000
    C3638   C    0.92426   0.95040   0.82386   1.000
    C3639   C    0.91130   0.93468   0.79665   1.000
    C3640   C    0.86392   0.39162   0.24165   1.000
    C3641   C    0.87188   0.40110   0.25667   1.000
    C3642   C    0.88784   0.39410   0.26563   1.000
    C3643   C    0.89598   0.37748   0.25896   1.000
    C3644   C    0.88804   0.36794   0.24385   1.000
    C3645   C    0.87183   0.37483   0.23494   1.000
    C3646   C    0.89564   0.40482   0.28153   1.000
    C3647   C    0.90651   0.39721   0.29481   1.000
    C3648   C    0.91363   0.40772   0.31119   1.000
    C3649   C    0.91957   0.39752   0.32688   1.000
    C3650   C    0.92677   0.40665   0.34250   1.000
    C3651   C    0.92831   0.42624   0.34276   1.000
    C3652   C    0.92227   0.43654   0.32715   1.000
    C3653   C    0.91511   0.42738   0.31144   1.000
    C3654   C    0.85155   0.39771   0.23543   1.000
    C3655   C    0.86539   0.41394   0.26142   1.000
    C3656   C    0.90865   0.37190   0.26510   1.000
    C3657   C    0.89478   0.35523   0.23922   1.000
    C3658   C    0.89121   0.41923   0.28282   1.000
    C3659   C    0.90956   0.38239   0.29437   1.000
    C3660   C    0.91862   0.38240   0.32708   1.000
    C3661   C    0.93111   0.39837   0.35444   1.000
    C3662   C    0.92358   0.45163   0.32691   1.000
    C3663   C    0.91124   0.43578   0.29946   1.000
    C3664   C    0.36047   0.89265   0.24084   1.000
    C3665   C    0.36825   0.90197   0.25612   1.000
    C3666   C    0.38472   0.89542   0.26456   1.000
    C3667   C    0.39350   0.87949   0.25712   1.000
    C3668   C    0.38575   0.87014   0.24185   1.000
    C3669   C    0.36906   0.87652   0.23343   1.000
    C3670   C    0.39253   0.90586   0.28067   1.000
    C3671   C    0.40400   0.89810   0.29338   1.000
    C3672   C    0.41176   0.90826   0.30968   1.000
    C3673   C    0.41856   0.89775   0.32483   1.000
    C3674   C    0.42639   0.90658   0.34034   1.000
    C3675   C    0.42774   0.92617   0.34103   1.000
    C3676   C    0.42098   0.93675   0.32588   1.000
    C3677   C    0.41315   0.92791   0.31031   1.000
    C3678   C    0.34770   0.89827   0.23497   1.000
    C3679   C    0.36128   0.91431   0.26146   1.000
    C3680   C    0.40658   0.87434   0.26276   1.000
    C3681   C    0.39309   0.85799   0.23669   1.000
    C3682   C    0.38782   0.92012   0.28252   1.000
    C3683   C    0.40728   0.88335   0.29242   1.000
    C3684   C    0.41773   0.88263   0.32472   1.000
    C3685   C    0.43123   0.89805   0.35191   1.000
    C3686   C    0.42210   0.95185   0.32592   1.000
    C3687   C    0.40862   0.93652   0.29872   1.000
    C3688   C    0.39015   0.35926   0.74534   1.000
    C3689   C    0.39891   0.36675   0.76106   1.000
    C3690   C    0.39240   0.38340   0.76908   1.000
    C3691   C    0.37660   0.39222   0.76126   1.000
    C3692   C    0.36785   0.38474   0.74550   1.000
    C3693   C    0.37454   0.36818   0.73730   1.000
    C3694   C    0.40214   0.39066   0.78583   1.000
    C3695   C    0.40115   0.40853   0.79143   1.000
    C3696   C    0.41090   0.41571   0.80823   1.000
    C3697   C    0.41381   0.43505   0.80983   1.000
    C3698   C    0.42244   0.44248   0.82566   1.000
    C3699   C    0.42835   0.43069   0.84024   1.000
    C3700   C    0.42546   0.41135   0.83871   1.000
    C3701   C    0.41673   0.40392   0.82294   1.000
    C3702   C    0.39568   0.34641   0.73965   1.000
    C3703   C    0.41092   0.35954   0.76692   1.000
    C3704   C    0.37071   0.40473   0.76738   1.000
    C3705   C    0.35581   0.39198   0.73985   1.000
    C3706   C    0.41109   0.38095   0.79325   1.000
    C3707   C    0.39356   0.41862   0.78305   1.000
    C3708   C    0.40936   0.44447   0.79879   1.000
    C3709   C    0.42455   0.45745   0.82650   1.000
    C3710   C    0.42946   0.40200   0.84996   1.000
    C3711   C    0.41419   0.38903   0.82266   1.000
    C3712   C    0.10599   0.85847   0.25866   1.000
    C3713   C    0.09644   0.86600   0.24331   1.000
    C3714   C    0.10276   0.88240   0.23461   1.000
    C3715   C    0.11866   0.89139   0.24187   1.000
    C3716   C    0.12820   0.88389   0.25721   1.000
    C3717   C    0.12204   0.86730   0.26581   1.000
    C3718   C    0.09214   0.89001   0.21843   1.000
    C3719   C    0.09986   0.90117   0.20548   1.000
    C3720   C    0.08960   0.90902   0.18920   1.000
    C3721   C    0.10003   0.91573   0.17404   1.000
    C3722   C    0.09116   0.92380   0.15861   1.000
    C3723   C    0.07159   0.92550   0.15803   1.000
    C3724   C    0.06107   0.91875   0.17315   1.000
    C3725   C    0.06997   0.91068   0.18865   1.000
    C3726   C    0.10070   0.84575   0.26487   1.000
    C3727   C    0.08413   0.85888   0.23813   1.000
    C3728   C    0.12363   0.90442   0.23603   1.000
    C3729   C    0.14033   0.89128   0.26234   1.000
    C3730   C    0.07781   0.88549   0.21682   1.000
    C3731   C    0.11466   0.90419   0.20628   1.000
    C3732   C    0.11515   0.91470   0.17410   1.000
    C3733   C    0.09964   0.92860   0.14705   1.000
    C3734   C    0.04599   0.92011   0.17318   1.000
    C3735   C    0.06141   0.90621   0.20025   1.000
    C3736   C    0.14215   0.39014   0.75701   1.000
    C3737   C    0.13479   0.39895   0.74116   1.000
    C3738   C    0.11824   0.39251   0.73287   1.000
    C3739   C    0.10936   0.37674   0.74059   1.000
    C3740   C    0.11672   0.36793   0.75645   1.000
    C3741   C    0.13319   0.37453   0.76492   1.000
    C3742   C    0.11116   0.40218   0.71587   1.000
    C3743   C    0.09338   0.40117   0.70990   1.000
    C3744   C    0.08633   0.41072   0.69282   1.000
    C3745   C    0.06697   0.41333   0.69074   1.000
    C3746   C    0.05964   0.42172   0.67464   1.000
    C3747   C    0.07152   0.42764   0.66021   1.000
    C3748   C    0.09089   0.42502   0.66224   1.000
    C3749   C    0.09824   0.41657   0.67829   1.000
    C3750   C    0.15490   0.39565   0.76295   1.000
    C3751   C    0.14204   0.41093   0.73540   1.000
    C3752   C    0.09693   0.37089   0.73430   1.000
    C3753   C    0.10945   0.35588   0.76195   1.000
    C3754   C    0.12094   0.41108   0.70856   1.000
    C3755   C    0.08322   0.39364   0.71817   1.000
    C3756   C    0.05746   0.40887   0.70162   1.000
    C3757   C    0.04465   0.42363   0.67350   1.000
    C3758   C    0.10036   0.42906   0.65115   1.000
    C3759   C    0.11316   0.41426   0.67894   1.000
    C3760   C    0.60786   0.86402   0.76131   1.000
    C3761   C    0.59804   0.87217   0.74651   1.000
    C3762   C    0.60540   0.88757   0.73688   1.000
    C3763   C    0.62260   0.89508   0.74280   1.000
    C3764   C    0.63244   0.88693   0.75766   1.000
    C3765   C    0.62527   0.87119   0.76697   1.000
    C3766   C    0.59455   0.89546   0.72102   1.000
    C3767   C    0.60233   0.90538   0.70715   1.000
    C3768   C    0.59184   0.91276   0.69079   1.000
    C3769   C    0.60207   0.91862   0.67514   1.000
    C3770   C    0.59300   0.92607   0.65953   1.000
    C3771   C    0.57345   0.92789   0.65920   1.000
    C3772   C    0.56311   0.92193   0.67475   1.000
    C3773   C    0.57220   0.91456   0.69046   1.000
    C3774   C    0.60169   0.85214   0.76833   1.000
    C3775   C    0.58471   0.86626   0.74243   1.000
    C3776   C    0.62847   0.90735   0.73619   1.000
    C3777   C    0.64574   0.89289   0.76168   1.000
    C3778   C    0.57989   0.89190   0.72035   1.000
    C3779   C    0.61731   0.90751   0.70717   1.000
    C3780   C    0.61718   0.91743   0.67497   1.000
    C3781   C    0.60130   0.93035   0.64763   1.000
    C3782   C    0.54804   0.92341   0.67491   1.000
    C3783   C    0.56375   0.91075   0.70236   1.000
    C3784   C    0.60928   0.36254   0.26073   1.000
    C3785   C    0.59998   0.37071   0.24562   1.000
    C3786   C    0.60679   0.38705   0.23727   1.000
    C3787   C    0.62301   0.39536   0.24466   1.000
    C3788   C    0.63234   0.38723   0.25987   1.000
    C3789   C    0.62569   0.37060   0.26813   1.000
    C3790   C    0.59629   0.39510   0.22125   1.000
    C3791   C    0.60404   0.40625   0.20834   1.000
    C3792   C    0.59373   0.41365   0.19189   1.000
    C3793   C    0.60402   0.41935   0.17624   1.000
    C3794   C    0.59502   0.42671   0.16054   1.000
    C3795   C    0.57547   0.42872   0.16017   1.000
    C3796   C    0.56509   0.42300   0.17579   1.000
    C3797   C    0.57411   0.41563   0.19155   1.000
    C3798   C    0.60336   0.34991   0.26649   1.000
    C3799   C    0.58743   0.36410   0.24031   1.000
    C3800   C    0.62842   0.40828   0.23897   1.000
    C3801   C    0.64477   0.39409   0.26503   1.000
    C3802   C    0.58194   0.39064   0.21952   1.000
    C3803   C    0.61884   0.40929   0.20914   1.000
    C3804   C    0.61912   0.41802   0.17612   1.000
    C3805   C    0.60338   0.43075   0.14861   1.000
    C3806   C    0.55003   0.42465   0.17598   1.000
    C3807   C    0.56568   0.41196   0.20352   1.000
    C3808   C    0.89214   0.14055   0.25779   1.000
    C3809   C    0.90146   0.13300   0.24238   1.000
    C3810   C    0.89531   0.11632   0.23415   1.000
    C3811   C    0.87982   0.10709   0.24197   1.000
    C3812   C    0.87051   0.11461   0.25738   1.000
    C3813   C    0.87649   0.13148   0.26550   1.000
    C3814   C    0.90568   0.10873   0.21786   1.000
    C3815   C    0.89793   0.09721   0.20526   1.000
    C3816   C    0.90793   0.08956   0.18877   1.000
    C3817   C    0.89726   0.08262   0.17386   1.000
    C3818   C    0.90590   0.07477   0.15826   1.000
    C3819   C    0.92548   0.07349   0.15721   1.000
    C3820   C    0.93623   0.08046   0.17210   1.000
    C3821   C    0.92757   0.08834   0.18776   1.000
    C3822   C    0.89728   0.15350   0.26359   1.000
    C3823   C    0.91346   0.14032   0.23677   1.000
    C3824   C    0.87500   0.09386   0.23650   1.000
    C3825   C    0.85870   0.10703   0.26295   1.000
    C3826   C    0.91983   0.11362   0.21580   1.000
    C3827   C    0.88326   0.09376   0.20648   1.000
    C3828   C    0.88213   0.08332   0.17425   1.000
    C3829   C    0.89720   0.06983   0.14690   1.000
    C3830   C    0.95134   0.07944   0.17181   1.000
    C3831   C    0.93632   0.09301   0.19915   1.000
    C3832   C    0.85879   0.61093   0.75429   1.000
    C3833   C    0.86620   0.60208   0.73862   1.000
    C3834   C    0.88324   0.60791   0.73097   1.000
    C3835   C    0.89258   0.62317   0.73913   1.000
    C3836   C    0.88516   0.63205   0.75486   1.000
    C3837   C    0.86821   0.62597   0.76271   1.000
    C3838   C    0.89034   0.59801   0.71423   1.000
    C3839   C    0.90826   0.59827   0.70875   1.000
    C3840   C    0.91528   0.58816   0.69208   1.000
    C3841   C    0.93456   0.58477   0.69059   1.000
    C3842   C    0.94190   0.57582   0.67490   1.000
    C3843   C    0.93009   0.57009   0.66031   1.000
    C3844   C    0.91079   0.57338   0.66178   1.000
    C3845   C    0.90345   0.58242   0.67742   1.000
    C3846   C    0.84559   0.60596   0.75967   1.000
    C3847   C    0.85858   0.59053   0.73250   1.000
    C3848   C    0.90545   0.62853   0.73333   1.000
    C3849   C    0.89278   0.64363   0.76087   1.000
    C3850   C    0.88041   0.58943   0.70677   1.000
    C3851   C    0.91852   0.60551   0.71717   1.000
    C3852   C    0.94401   0.58911   0.70159   1.000
    C3853   C    0.95683   0.57342   0.67413   1.000
    C3854   C    0.90143   0.56950   0.65054   1.000
    C3855   C    0.88862   0.58531   0.67760   1.000
    C3856   C    0.38720   0.14010   0.75737   1.000
    C3857   C    0.39587   0.13258   0.74164   1.000
    C3858   C    0.38966   0.11571   0.73389   1.000
    C3859   C    0.37425   0.10664   0.74210   1.000
    C3860   C    0.36555   0.11419   0.75791   1.000
    C3861   C    0.37196   0.13100   0.76580   1.000
    C3862   C    0.39928   0.10862   0.71695   1.000
    C3863   C    0.39844   0.09084   0.71104   1.000
    C3864   C    0.40841   0.08393   0.69421   1.000
    C3865   C    0.41154   0.06463   0.69238   1.000
    C3866   C    0.42045   0.05744   0.67658   1.000
    C3867   C    0.42638   0.06941   0.66218   1.000
    C3868   C    0.42326   0.08872   0.66395   1.000
    C3869   C    0.41428   0.09591   0.67971   1.000
    C3870   C    0.39256   0.15312   0.76279   1.000
    C3871   C    0.40755   0.13999   0.73553   1.000
    C3872   C    0.36862   0.09391   0.73627   1.000
    C3873   C    0.35379   0.10682   0.76386   1.000
    C3874   C    0.40819   0.11842   0.70967   1.000
    C3875   C    0.39087   0.08062   0.71921   1.000
    C3876   C    0.40709   0.05505   0.70324   1.000
    C3877   C    0.42273   0.04249   0.67563   1.000
    C3878   C    0.42727   0.09823   0.65287   1.000
    C3879   C    0.41157   0.11078   0.68013   1.000
    C3880   C    0.35998   0.61382   0.25648   1.000
    C3881   C    0.36740   0.60527   0.24064   1.000
    C3882   C    0.38461   0.61100   0.23326   1.000
    C3883   C    0.39415   0.62584   0.24199   1.000
    C3884   C    0.38670   0.63442   0.25791   1.000
    C3885   C    0.36954   0.62848   0.26541   1.000
    C3886   C    0.39163   0.60146   0.21623   1.000
    C3887   C    0.40950   0.60182   0.21054   1.000
    C3888   C    0.41639   0.59197   0.19361   1.000
    C3889   C    0.43568   0.58871   0.19183   1.000
    C3890   C    0.44289   0.57994   0.17597   1.000
    C3891   C    0.43097   0.57423   0.16145   1.000
    C3892   C    0.41167   0.57743   0.16319   1.000
    C3893   C    0.40445   0.58630   0.17901   1.000
    C3894   C    0.34665   0.60890   0.26157   1.000
    C3895   C    0.35963   0.59403   0.23413   1.000
    C3896   C    0.40717   0.63111   0.23648   1.000
    C3897   C    0.39444   0.64571   0.26428   1.000
    C3898   C    0.38163   0.59305   0.20866   1.000
    C3899   C    0.41983   0.60893   0.21897   1.000
    C3900   C    0.44523   0.59299   0.20277   1.000
    C3901   C    0.45783   0.57759   0.17505   1.000
    C3902   C    0.40219   0.57356   0.15204   1.000
    C3903   C    0.38959   0.58906   0.17939   1.000
    C3904   C    0.10870   0.25930   0.86005   1.000
    C3905   C    0.09939   0.24382   0.86753   1.000
    C3906   C    0.10600   0.23497   0.88375   1.000
    C3907   C    0.12200   0.24219   0.89259   1.000
    C3908   C    0.13134   0.25764   0.88514   1.000
    C3909   C    0.12489   0.26649   0.86870   1.000
    C3910   C    0.09554   0.21870   0.89130   1.000
    C3911   C    0.10332   0.20574   0.90250   1.000
    C3912   C    0.09316   0.18935   0.91018   1.000
    C3913   C    0.10366   0.17415   0.91692   1.000
    C3914   C    0.09486   0.15859   0.92474   1.000
    C3915   C    0.07528   0.15788   0.92614   1.000
    C3916   C    0.06470   0.17306   0.91942   1.000
    C3917   C    0.07352   0.18869   0.91160   1.000
    C3918   C    0.10303   0.26549   0.84747   1.000
    C3919   C    0.08699   0.23867   0.86052   1.000
    C3920   C    0.12721   0.23623   0.90549   1.000
    C3921   C    0.14353   0.26261   0.89252   1.000
    C3922   C    0.08123   0.21701   0.88669   1.000
    C3923   C    0.11809   0.20658   0.90566   1.000
    C3924   C    0.11879   0.17429   0.91608   1.000
    C3925   C    0.10340   0.14700   0.92953   1.000
    C3926   C    0.04960   0.17301   0.92057   1.000
    C3927   C    0.06489   0.20030   0.90713   1.000
    C3928   C    0.14205   0.75667   0.39035   1.000
    C3929   C    0.13483   0.74094   0.39940   1.000
    C3930   C    0.11853   0.73227   0.39288   1.000
    C3931   C    0.10982   0.73941   0.37674   1.000
    C3932   C    0.11701   0.75515   0.36765   1.000
    C3933   C    0.13322   0.76415   0.37435   1.000
    C3934   C    0.11147   0.71554   0.40291   1.000
    C3935   C    0.09361   0.70988   0.40215   1.000
    C3936   C    0.08642   0.69314   0.41211   1.000
    C3937   C    0.06708   0.69161   0.41503   1.000
    C3938   C    0.05957   0.67582   0.42374   1.000
    C3939   C    0.07125   0.66115   0.42969   1.000
    C3940   C    0.09062   0.66265   0.42682   1.000
    C3941   C    0.09814   0.67841   0.41805   1.000
    C3942   C    0.15457   0.76285   0.39610   1.000
    C3943   C    0.14196   0.73559   0.41168   1.000
    C3944   C    0.09762   0.73274   0.37083   1.000
    C3945   C    0.10976   0.76008   0.35533   1.000
    C3946   C    0.12126   0.70827   0.41190   1.000
    C3947   C    0.08349   0.71820   0.39452   1.000
    C3948   C    0.05771   0.70267   0.41051   1.000
    C3949   C    0.04460   0.67509   0.42586   1.000
    C3950   C    0.09992   0.65136   0.43087   1.000
    C3951   C    0.11303   0.67868   0.41554   1.000
    C3952   C    0.60762   0.25820   0.36148   1.000
    C3953   C    0.59806   0.24302   0.36916   1.000
    C3954   C    0.60434   0.23449   0.38565   1.000
    C3955   C    0.62025   0.24178   0.39461   1.000
    C3956   C    0.62983   0.25701   0.38698   1.000
    C3957   C    0.62373   0.26547   0.37022   1.000
    C3958   C    0.59364   0.21845   0.39325   1.000
    C3959   C    0.60115   0.20550   0.40459   1.000
    C3960   C    0.59070   0.18920   0.41200   1.000
    C3961   C    0.60092   0.17374   0.41852   1.000
    C3962   C    0.59182   0.15827   0.42613   1.000
    C3963   C    0.57223   0.15795   0.42755   1.000
    C3964   C    0.56191   0.17335   0.42095   1.000
    C3965   C    0.57104   0.18889   0.41335   1.000
    C3966   C    0.60216   0.26412   0.34869   1.000
    C3967   C    0.58575   0.23780   0.36205   1.000
    C3968   C    0.62522   0.23600   0.40769   1.000
    C3969   C    0.64200   0.26205   0.39438   1.000
    C3970   C    0.57940   0.21682   0.38842   1.000
    C3971   C    0.61589   0.20623   0.40798   1.000
    C3972   C    0.61605   0.17360   0.41770   1.000
    C3973   C    0.60012   0.14648   0.43086   1.000
    C3974   C    0.54681   0.17355   0.42212   1.000
    C3975   C    0.56264   0.20073   0.40902   1.000
    C3976   C    0.60773   0.75919   0.86109   1.000
    C3977   C    0.59800   0.74426   0.86907   1.000
    C3978   C    0.60466   0.73553   0.88533   1.000
    C3979   C    0.62098   0.74244   0.89385   1.000
    C3980   C    0.63072   0.75735   0.88587   1.000
    C3981   C    0.62430   0.76584   0.86933   1.000
    C3982   C    0.59410   0.71953   0.89315   1.000
    C3983   C    0.60209   0.70629   0.90380   1.000
    C3984   C    0.59202   0.68990   0.91147   1.000
    C3985   C    0.60262   0.67461   0.91783   1.000
    C3986   C    0.59391   0.65899   0.92557   1.000
    C3987   C    0.57436   0.65833   0.92720   1.000
    C3988   C    0.56367   0.67356   0.92083   1.000
    C3989   C    0.57240   0.68927   0.91314   1.000
    C3990   C    0.60216   0.76549   0.84851   1.000
    C3991   C    0.58532   0.73937   0.86238   1.000
    C3992   C    0.62621   0.73656   0.90678   1.000
    C3993   C    0.64334   0.76210   0.89271   1.000
    C3994   C    0.57961   0.71821   0.88901   1.000
    C3995   C    0.61699   0.70687   0.90642   1.000
    C3996   C    0.61773   0.67472   0.91677   1.000
    C3997   C    0.60247   0.64732   0.93014   1.000
    C3998   C    0.54859   0.67347   0.92216   1.000
    C3999   C    0.56371   0.70094   0.90896   1.000
    C4000   C    0.89147   0.25785   0.14033   1.000
    C4001   C    0.90060   0.24255   0.13230   1.000
    C4002   C    0.89400   0.23460   0.11566   1.000
    C4003   C    0.87813   0.24253   0.10704   1.000
    C4004   C    0.86899   0.25784   0.11507   1.000
    C4005   C    0.87552   0.26574   0.13183   1.000
    C4006   C    0.90442   0.21858   0.10748   1.000
    C4007   C    0.89683   0.20639   0.09542   1.000
    C4008   C    0.90709   0.19025   0.08728   1.000
    C4009   C    0.89671   0.17537   0.07989   1.000
    C4010   C    0.90565   0.16004   0.07173   1.000
    C4011   C    0.92526   0.15928   0.07059   1.000
    C4012   C    0.93571   0.17419   0.07792   1.000
    C4013   C    0.92675   0.18956   0.08610   1.000
    C4014   C    0.89703   0.26346   0.15319   1.000
    C4015   C    0.91287   0.23686   0.13917   1.000
    C4016   C    0.87289   0.23726   0.09390   1.000
    C4017   C    0.85689   0.26353   0.10795   1.000
    C4018   C    0.91859   0.21638   0.11233   1.000
    C4019   C    0.88216   0.20763   0.09189   1.000
    C4020   C    0.88157   0.17553   0.08052   1.000
    C4021   C    0.89718   0.14867   0.06648   1.000
    C4022   C    0.95082   0.17413   0.07701   1.000
    C4023   C    0.93530   0.20097   0.09107   1.000
    C4024   C    0.85905   0.75225   0.61669   1.000
    C4025   C    0.86648   0.73646   0.60810   1.000
    C4026   C    0.88457   0.73023   0.61240   1.000
    C4027   C    0.89499   0.73997   0.62597   1.000
    C4028   C    0.88752   0.75589   0.63461   1.000
    C4029   C    0.86952   0.76232   0.62990   1.000
    C4030   C    0.89159   0.71338   0.60258   1.000
    C4031   C    0.90964   0.70835   0.60167   1.000
    C4032   C    0.91635   0.69167   0.59128   1.000
    C4033   C    0.93544   0.69038   0.58692   1.000
    C4034   C    0.94249   0.67476   0.57756   1.000
    C4035   C    0.93057   0.66010   0.57233   1.000
    C4036   C    0.91147   0.66137   0.57655   1.000
    C4037   C    0.90443   0.67688   0.58607   1.000
    C4038   C    0.84500   0.75644   0.61294   1.000
    C4039   C    0.85803   0.72912   0.59791   1.000
    C4040   C    0.90878   0.73536   0.63015   1.000
    C4041   C    0.89592   0.76324   0.64479   1.000
    C4042   C    0.88129   0.70540   0.59496   1.000
    C4043   C    0.92015   0.71713   0.60803   1.000
    C4044   C    0.94497   0.70146   0.59083   1.000
    C4045   C    0.95729   0.67409   0.57447   1.000
    C4046   C    0.90208   0.65003   0.57305   1.000
    C4047   C    0.88978   0.67682   0.58968   1.000
    C4048   C    0.39078   0.25850   0.63741   1.000
    C4049   C    0.39975   0.24320   0.62934   1.000
    C4050   C    0.39263   0.23489   0.61315   1.000
    C4051   C    0.37637   0.24245   0.60496   1.000
    C4052   C    0.36733   0.25781   0.61304   1.000
    C4053   C    0.37436   0.26610   0.62946   1.000
    C4054   C    0.40294   0.21881   0.60511   1.000
    C4055   C    0.39519   0.20621   0.59364   1.000
    C4056   C    0.40539   0.18970   0.58633   1.000
    C4057   C    0.39498   0.17430   0.58016   1.000
    C4058   C    0.40392   0.15851   0.57301   1.000
    C4059   C    0.42351   0.15779   0.57173   1.000
    C4060   C    0.43399   0.17319   0.57782   1.000
    C4061   C    0.42504   0.18905   0.58495   1.000
    C4062   C    0.39693   0.26419   0.64995   1.000
    C4063   C    0.41232   0.23776   0.63588   1.000
    C4064   C    0.37071   0.23682   0.59215   1.000
    C4065   C    0.35491   0.26314   0.60623   1.000
    C4066   C    0.41718   0.21675   0.60983   1.000
    C4067   C    0.38048   0.20731   0.59024   1.000
    C4068   C    0.37986   0.17442   0.58101   1.000
    C4069   C    0.39548   0.14675   0.56861   1.000
    C4070   C    0.44909   0.17313   0.57669   1.000
    C4071   C    0.43359   0.20083   0.58897   1.000
    C4072   C    0.39272   0.75948   0.14200   1.000
    C4073   C    0.40222   0.74416   0.13444   1.000
    C4074   C    0.39567   0.73538   0.11822   1.000
    C4075   C    0.37949   0.74247   0.10951   1.000
    C4076   C    0.36995   0.75774   0.11706   1.000
    C4077   C    0.37639   0.76658   0.13343   1.000
    C4078   C    0.40643   0.71940   0.11047   1.000
    C4079   C    0.39894   0.70660   0.09902   1.000
    C4080   C    0.40947   0.69065   0.09092   1.000
    C4081   C    0.39930   0.67558   0.08363   1.000
    C4082   C    0.40844   0.66050   0.07530   1.000
    C4083   C    0.42804   0.66017   0.07395   1.000
    C4084   C    0.43829   0.67521   0.08126   1.000
    C4085   C    0.42913   0.69036   0.08958   1.000
    C4086   C    0.39835   0.76564   0.15457   1.000
    C4087   C    0.41473   0.73909   0.14137   1.000
    C4088   C    0.37430   0.73659   0.09662   1.000
    C4089   C    0.35764   0.76264   0.10973   1.000
    C4090   C    0.42077   0.71785   0.11505   1.000
    C4091   C    0.38415   0.70728   0.09585   1.000
    C4092   C    0.38417   0.67544   0.08439   1.000
    C4093   C    0.40016   0.64898   0.07005   1.000
    C4094   C    0.45339   0.67543   0.08018   1.000
    C4095   C    0.43751   0.70191   0.09448   1.000
    C4096   C    0.88736   0.74342   0.85711   1.000
    C4097   C    0.89628   0.75913   0.86451   1.000
    C4098   C    0.89054   0.76680   0.88158   1.000
    C4099   C    0.87535   0.75855   0.89096   1.000
    C4100   C    0.86643   0.74281   0.88356   1.000
    C4101   C    0.87234   0.73499   0.86656   1.000
    C4102   C    0.90038   0.78366   0.88863   1.000
    C4103   C    0.89993   0.78933   0.90650   1.000
    C4104   C    0.90977   0.80622   0.91354   1.000
    C4105   C    0.91246   0.80810   0.93288   1.000
    C4106   C    0.92110   0.82399   0.94025   1.000
    C4107   C    0.92726   0.83841   0.92842   1.000
    C4108   C    0.92465   0.83657   0.90907   1.000
    C4109   C    0.91590   0.82073   0.90169   1.000
    C4110   C    0.89232   0.73802   0.84394   1.000
    C4111   C    0.90779   0.76527   0.85685   1.000
    C4112   C    0.87003   0.76432   0.90384   1.000
    C4113   C    0.85485   0.73687   0.89123   1.000
    C4114   C    0.90896   0.79113   0.87870   1.000
    C4115   C    0.89263   0.78094   0.91673   1.000
    C4116   C    0.90781   0.79724   0.94236   1.000
    C4117   C    0.92301   0.82498   0.95522   1.000
    C4118   C    0.92888   0.84765   0.89965   1.000
    C4119   C    0.91361   0.82027   0.88678   1.000
    C4120   C    0.86110   0.24112   0.39192   1.000
    C4121   C    0.86891   0.25641   0.40121   1.000
    C4122   C    0.88476   0.26547   0.39410   1.000
    C4123   C    0.89287   0.25864   0.37757   1.000
    C4124   C    0.88506   0.24334   0.36826   1.000
    C4125   C    0.86906   0.23436   0.37529   1.000
    C4126   C    0.89265   0.28150   0.40465   1.000
    C4127   C    0.90377   0.29451   0.39698   1.000
    C4128   C    0.91166   0.31069   0.40732   1.000
    C4129   C    0.91860   0.32586   0.39698   1.000
    C4130   C    0.92657   0.34123   0.40593   1.000
    C4131   C    0.92791   0.34179   0.42550   1.000
    C4132   C    0.92097   0.32666   0.43593   1.000
    C4133   C    0.91303   0.31120   0.42695   1.000
    C4134   C    0.84886   0.23464   0.39791   1.000
    C4135   C    0.86245   0.26123   0.41400   1.000
    C4136   C    0.90545   0.26476   0.37189   1.000
    C4137   C    0.89174   0.23854   0.35561   1.000
    C4138   C    0.88834   0.28295   0.41904   1.000
    C4139   C    0.90672   0.29389   0.38218   1.000
    C4140   C    0.91779   0.32586   0.38187   1.000
    C4141   C    0.93155   0.35280   0.39752   1.000
    C4142   C    0.92205   0.32660   0.45101   1.000
    C4143   C    0.90840   0.29962   0.43549   1.000
    C4144   C    0.36414   0.74056   0.39080   1.000
    C4145   C    0.37225   0.75564   0.40004   1.000
    C4146   C    0.38826   0.76431   0.39296   1.000
    C4147   C    0.39626   0.75731   0.37644   1.000
    C4148   C    0.38816   0.74211   0.36713   1.000
    C4149   C    0.37191   0.73347   0.37415   1.000
    C4150   C    0.39622   0.78022   0.40358   1.000
    C4151   C    0.40736   0.79327   0.39608   1.000
    C4152   C    0.41444   0.80966   0.40662   1.000
    C4153   C    0.42035   0.82540   0.39653   1.000
    C4154   C    0.42738   0.84107   0.40574   1.000
    C4155   C    0.42881   0.84133   0.42533   1.000
    C4156   C    0.42282   0.82565   0.43551   1.000
    C4157   C    0.41583   0.80991   0.42628   1.000
    C4158   C    0.35176   0.73460   0.39700   1.000
    C4159   C    0.36584   0.76064   0.41279   1.000
    C4160   C    0.40893   0.76327   0.37077   1.000
    C4161   C    0.39478   0.73719   0.35450   1.000
    C4162   C    0.39163   0.78176   0.41788   1.000
    C4163   C    0.41062   0.79265   0.38135   1.000
    C4164   C    0.41948   0.82561   0.38142   1.000
    C4165   C    0.43167   0.85305   0.39752   1.000
    C4166   C    0.42403   0.82538   0.45059   1.000
    C4167   C    0.41198   0.79789   0.43460   1.000
    C4168   C    0.38728   0.24683   0.86020   1.000
    C4169   C    0.39604   0.26263   0.86753   1.000
    C4170   C    0.39022   0.27030   0.88457   1.000
    C4171   C    0.37505   0.26200   0.89394   1.000
    C4172   C    0.36627   0.24616   0.88661   1.000
    C4173   C    0.37234   0.23829   0.86968   1.000
    C4174   C    0.39993   0.28723   0.89158   1.000
    C4175   C    0.39957   0.29281   0.90946   1.000
    C4176   C    0.40947   0.30966   0.91645   1.000
    C4177   C    0.41269   0.31132   0.93573   1.000
    C4178   C    0.42151   0.32713   0.94302   1.000
    C4179   C    0.42728   0.34171   0.93118   1.000
    C4180   C    0.42406   0.34012   0.91190   1.000
    C4181   C    0.41516   0.32435   0.90460   1.000
    C4182   C    0.39229   0.24143   0.84705   1.000
    C4183   C    0.40751   0.26885   0.85986   1.000
    C4184   C    0.36967   0.26780   0.90678   1.000
    C4185   C    0.35476   0.24011   0.89428   1.000
    C4186   C    0.40847   0.29475   0.88164   1.000
    C4187   C    0.39238   0.28436   0.91972   1.000
    C4188   C    0.40837   0.30031   0.94520   1.000
    C4189   C    0.42387   0.32796   0.95794   1.000
    C4190   C    0.42797   0.35133   0.90249   1.000
    C4191   C    0.41240   0.32406   0.88976   1.000
    C4192   C    0.14001   0.74204   0.11298   1.000
    C4193   C    0.13245   0.75786   0.10431   1.000
    C4194   C    0.11613   0.76625   0.11112   1.000
    C4195   C    0.10767   0.75866   0.12716   1.000
    C4196   C    0.11525   0.74280   0.13592   1.000
    C4197   C    0.13154   0.73415   0.12894   1.000
    C4198   C    0.10889   0.78315   0.10134   1.000
    C4199   C    0.09115   0.78919   0.10246   1.000
    C4200   C    0.08397   0.80584   0.09220   1.000
    C4201   C    0.06462   0.80756   0.08929   1.000
    C4202   C    0.05718   0.82317   0.08008   1.000
    C4203   C    0.06894   0.83751   0.07363   1.000
    C4204   C    0.08831   0.83585   0.07652   1.000
    C4205   C    0.09575   0.82026   0.08579   1.000
    C4206   C    0.15256   0.73619   0.10699   1.000
    C4207   C    0.13938   0.76350   0.09210   1.000
    C4208   C    0.09539   0.76504   0.13322   1.000
    C4209   C    0.10825   0.73747   0.14819   1.000
    C4210   C    0.11848   0.79021   0.09205   1.000
    C4211   C    0.08112   0.78118   0.11045   1.000
    C4212   C    0.05520   0.79675   0.09414   1.000
    C4213   C    0.04221   0.82402   0.07798   1.000
    C4214   C    0.09767   0.84688   0.07210   1.000
    C4215   C    0.11066   0.81989   0.08828   1.000
    C4216   C    0.13993   0.24002   0.60769   1.000
    C4217   C    0.13240   0.25537   0.59819   1.000
    C4218   C    0.11640   0.26448   0.60486   1.000
    C4219   C    0.10782   0.25763   0.62116   1.000
    C4220   C    0.11535   0.24227   0.63072   1.000
    C4221   C    0.13157   0.23318   0.62418   1.000
    C4222   C    0.10890   0.28065   0.59414   1.000
    C4223   C    0.09794   0.29386   0.60168   1.000
    C4224   C    0.09059   0.31029   0.59125   1.000
    C4225   C    0.08410   0.32566   0.60152   1.000
    C4226   C    0.07654   0.34126   0.59248   1.000
    C4227   C    0.07516   0.34183   0.57291   1.000
    C4228   C    0.08174   0.32654   0.56255   1.000
    C4229   C    0.08929   0.31086   0.57161   1.000
    C4230   C    0.15235   0.23365   0.60193   1.000
    C4231   C    0.13922   0.26025   0.58559   1.000
    C4232   C    0.09510   0.26383   0.62647   1.000
    C4233   C    0.10821   0.23755   0.64316   1.000
    C4234   C    0.11344   0.28208   0.57982   1.000
    C4235   C    0.09480   0.29323   0.61645   1.000
    C4236   C    0.08488   0.32562   0.61663   1.000
    C4237   C    0.07181   0.35295   0.60084   1.000
    C4238   C    0.08060   0.32652   0.54746   1.000
    C4239   C    0.09361   0.29913   0.56315   1.000
    C4240   C    0.63828   0.73866   0.60498   1.000
    C4241   C    0.63054   0.75410   0.59577   1.000
    C4242   C    0.61463   0.76308   0.60286   1.000
    C4243   C    0.60631   0.75597   0.61919   1.000
    C4244   C    0.61405   0.74051   0.62841   1.000
    C4245   C    0.63020   0.73169   0.62149   1.000
    C4246   C    0.60694   0.77944   0.59259   1.000
    C4247   C    0.59633   0.79260   0.60069   1.000
    C4248   C    0.58875   0.80922   0.59076   1.000
    C4249   C    0.58259   0.82443   0.60146   1.000
    C4250   C    0.57489   0.84022   0.59290   1.000
    C4251   C    0.57305   0.84115   0.57339   1.000
    C4252   C    0.57925   0.82600   0.56259   1.000
    C4253   C    0.58692   0.81013   0.57117   1.000
    C4254   C    0.65065   0.73230   0.59909   1.000
    C4255   C    0.63713   0.75916   0.58312   1.000
    C4256   C    0.59365   0.76204   0.62478   1.000
    C4257   C    0.60722   0.73548   0.64090   1.000
    C4258   C    0.61110   0.78108   0.57817   1.000
    C4259   C    0.59369   0.79175   0.61554   1.000
    C4260   C    0.58378   0.82411   0.61655   1.000
    C4261   C    0.57046   0.85180   0.60157   1.000
    C4262   C    0.57775   0.82627   0.54754   1.000
    C4263   C    0.59095   0.79853   0.56239   1.000
    C4264   C    0.61177   0.24313   0.14282   1.000
    C4265   C    0.60276   0.25899   0.13573   1.000
    C4266   C    0.60804   0.26673   0.11853   1.000
    C4267   C    0.62289   0.25839   0.10867   1.000
    C4268   C    0.63193   0.24248   0.11578   1.000
    C4269   C    0.62646   0.23459   0.13293   1.000
    C4270   C    0.59812   0.28378   0.11184   1.000
    C4271   C    0.59788   0.28948   0.09395   1.000
    C4272   C    0.58785   0.30649   0.08727   1.000
    C4273   C    0.58424   0.30837   0.06807   1.000
    C4274   C    0.57551   0.32440   0.06099   1.000
    C4275   C    0.57020   0.33901   0.07295   1.000
    C4276   C    0.57364   0.33714   0.09218   1.000
    C4277   C    0.58247   0.32113   0.09928   1.000
    C4278   C    0.60717   0.23771   0.15614   1.000
    C4279   C    0.59153   0.26521   0.14375   1.000
    C4280   C    0.62785   0.26422   0.09565   1.000
    C4281   C    0.64322   0.23644   0.10777   1.000
    C4282   C    0.58999   0.29132   0.12208   1.000
    C4283   C    0.60472   0.28104   0.08347   1.000
    C4284   C    0.58827   0.29740   0.05847   1.000
    C4285   C    0.57294   0.32540   0.04611   1.000
    C4286   C    0.57007   0.34834   0.10169   1.000
    C4287   C    0.58547   0.32064   0.11407   1.000
    C4288   C    0.25484   0.14182   0.88782   1.000
    C4289   C    0.23904   0.13423   0.89640   1.000
    C4290   C    0.23220   0.11662   0.89117   1.000
    C4291   C    0.24142   0.10688   0.87678   1.000
    C4292   C    0.25728   0.11448   0.86819   1.000
    C4293   C    0.26425   0.13202   0.87365   1.000
    C4294   C    0.21521   0.10938   0.90071   1.000
    C4295   C    0.20988   0.09136   0.90054   1.000
    C4296   C    0.19293   0.08417   0.91022   1.000
    C4297   C    0.19127   0.06479   0.91310   1.000
    C4298   C    0.17539   0.05727   0.92164   1.000
    C4299   C    0.16075   0.06896   0.92754   1.000
    C4300   C    0.16235   0.08834   0.92469   1.000
    C4301   C    0.17817   0.09587   0.91605   1.000
    C4302   C    0.25952   0.15545   0.89232   1.000
    C4303   C    0.23214   0.14217   0.90725   1.000
    C4304   C    0.23638   0.09354   0.87185   1.000
    C4305   C    0.26405   0.10651   0.85731   1.000
    C4306   C    0.20733   0.11936   0.90886   1.000
    C4307   C    0.21858   0.08110   0.89363   1.000
    C4308   C    0.20232   0.05541   0.90871   1.000
    C4309   C    0.17459   0.04228   0.92371   1.000
    C4310   C    0.15110   0.09765   0.92871   1.000
    C4311   C    0.17844   0.11079   0.91361   1.000
    C4312   C    0.25257   0.64330   0.38497   1.000
    C4313   C    0.23674   0.63607   0.39370   1.000
    C4314   C    0.23064   0.61786   0.38990   1.000
    C4315   C    0.24047   0.60714   0.37666   1.000
    C4316   C    0.25636   0.61439   0.36790   1.000
    C4317   C    0.26269   0.63249   0.37209   1.000
    C4318   C    0.21376   0.61094   0.39970   1.000
    C4319   C    0.20950   0.59277   0.40161   1.000
    C4320   C    0.19271   0.58574   0.41159   1.000
    C4321   C    0.19137   0.56645   0.41511   1.000
    C4322   C    0.17564   0.55899   0.42391   1.000
    C4323   C    0.16092   0.57071   0.42949   1.000
    C4324   C    0.16225   0.59001   0.42619   1.000
    C4325   C    0.17788   0.59746   0.41723   1.000
    C4326   C    0.25675   0.65743   0.38830   1.000
    C4327   C    0.22929   0.64475   0.40360   1.000
    C4328   C    0.23590   0.59328   0.37280   1.000
    C4329   C    0.26375   0.60571   0.35799   1.000
    C4330   C    0.20515   0.62144   0.40628   1.000
    C4331   C    0.21898   0.58234   0.39613   1.000
    C4332   C    0.20249   0.55706   0.41091   1.000
    C4333   C    0.17495   0.54405   0.42635   1.000
    C4334   C    0.15090   0.59928   0.43002   1.000
    C4335   C    0.17788   0.61231   0.41448   1.000
    C4336   C    0.75968   0.10688   0.36168   1.000
    C4337   C    0.74431   0.09776   0.36958   1.000
    C4338   C    0.73483   0.10549   0.38487   1.000
    C4339   C    0.74133   0.12248   0.39233   1.000
    C4340   C    0.75667   0.13161   0.38443   1.000
    C4341   C    0.76608   0.12396   0.36898   1.000
    C4342   C    0.71871   0.09516   0.39295   1.000
    C4343   C    0.70557   0.10322   0.40365   1.000
    C4344   C    0.68939   0.09312   0.41188   1.000
    C4345   C    0.67425   0.10371   0.41852   1.000
    C4346   C    0.65884   0.09500   0.42673   1.000
    C4347   C    0.65821   0.07545   0.42858   1.000
    C4348   C    0.67335   0.06479   0.42202   1.000
    C4349   C    0.68884   0.07351   0.41386   1.000
    C4350   C    0.76657   0.10039   0.34993   1.000
    C4351   C    0.73976   0.08460   0.36365   1.000
    C4352   C    0.73492   0.12868   0.40449   1.000
    C4353   C    0.76113   0.14465   0.39058   1.000
    C4354   C    0.71737   0.08058   0.38920   1.000
    C4355   C    0.70610   0.11814   0.40602   1.000
    C4356   C    0.67430   0.11881   0.41728   1.000
    C4357   C    0.64728   0.10359   0.43141   1.000
    C4358   C    0.67336   0.04972   0.42352   1.000
    C4359   C    0.70040   0.06480   0.40951   1.000
    C4360   C    0.76589   0.60495   0.87156   1.000
    C4361   C    0.75113   0.59553   0.88010   1.000
    C4362   C    0.73824   0.60521   0.89119   1.000
    C4363   C    0.74078   0.62451   0.89411   1.000
    C4364   C    0.75572   0.63394   0.88571   1.000
    C4365   C    0.76830   0.62427   0.87417   1.000
    C4366   C    0.72269   0.59458   0.89973   1.000
    C4367   C    0.70594   0.60219   0.90341   1.000
    C4368   C    0.68991   0.59174   0.91147   1.000
    C4369   C    0.67466   0.60207   0.91822   1.000
    C4370   C    0.65922   0.59307   0.92601   1.000
    C4371   C    0.65862   0.57345   0.92725   1.000
    C4372   C    0.67366   0.56303   0.92016   1.000
    C4373   C    0.68913   0.57204   0.91231   1.000
    C4374   C    0.77552   0.59699   0.86305   1.000
    C4375   C    0.74962   0.58063   0.87783   1.000
    C4376   C    0.73144   0.63232   0.90306   1.000
    C4377   C    0.75726   0.64881   0.88803   1.000
    C4378   C    0.72515   0.57989   0.90231   1.000
    C4379   C    0.70372   0.61687   0.90038   1.000
    C4380   C    0.67471   0.61721   0.91756   1.000
    C4381   C    0.64766   0.60151   0.93095   1.000
    C4382   C    0.67358   0.54790   0.92091   1.000
    C4383   C    0.70022   0.56340   0.90683   1.000
    C4384   C    0.25544   0.85698   0.11122   1.000
    C4385   C    0.23955   0.86409   0.10227   1.000
    C4386   C    0.23189   0.88137   0.10754   1.000
    C4387   C    0.24031   0.89125   0.12229   1.000
    C4388   C    0.25623   0.88416   0.13122   1.000
    C4389   C    0.26405   0.86695   0.12578   1.000
    C4390   C    0.21482   0.88816   0.09778   1.000
    C4391   C    0.20922   0.90610   0.09776   1.000
    C4392   C    0.19200   0.91294   0.08827   1.000
    C4393   C    0.19003   0.93223   0.08504   1.000
    C4394   C    0.17383   0.93944   0.07676   1.000
    C4395   C    0.15918   0.92749   0.07153   1.000
    C4396   C    0.16109   0.90819   0.07471   1.000
    C4397   C    0.17725   0.90097   0.08309   1.000
    C4398   C    0.26084   0.84360   0.10672   1.000
    C4399   C    0.23323   0.85606   0.09113   1.000
    C4400   C    0.23456   0.90430   0.12728   1.000
    C4401   C    0.26233   0.89226   0.14240   1.000
    C4402   C    0.20710   0.87796   0.08975   1.000
    C4403   C    0.21786   0.91655   0.10442   1.000
    C4404   C    0.20108   0.94179   0.08898   1.000
    C4405   C    0.17276   0.95437   0.07440   1.000
    C4406   C    0.14984   0.89871   0.07119   1.000
    C4407   C    0.17780   0.88612   0.08586   1.000
    C4408   C    0.25638   0.38635   0.64249   1.000
    C4409   C    0.24061   0.39521   0.63508   1.000
    C4410   C    0.23337   0.38993   0.61767   1.000
    C4411   C    0.24209   0.37522   0.60795   1.000
    C4412   C    0.25792   0.36633   0.61538   1.000
    C4413   C    0.26533   0.37184   0.63272   1.000
    C4414   C    0.21652   0.39983   0.61056   1.000
    C4415   C    0.21136   0.40014   0.59252   1.000
    C4416   C    0.19461   0.41028   0.58545   1.000
    C4417   C    0.19331   0.41408   0.56624   1.000
    C4418   C    0.17758   0.42307   0.55882   1.000
    C4419   C    0.16275   0.42846   0.57047   1.000
    C4420   C    0.16402   0.42476   0.58970   1.000
    C4421   C    0.17970   0.41566   0.59711   1.000
    C4422   C    0.26142   0.39094   0.65596   1.000
    C4423   C    0.23408   0.40636   0.64298   1.000
    C4424   C    0.23666   0.37028   0.59476   1.000
    C4425   C    0.26432   0.35518   0.60745   1.000
    C4426   C    0.20869   0.40791   0.62061   1.000
    C4427   C    0.22010   0.39337   0.58224   1.000
    C4428   C    0.20449   0.41002   0.55690   1.000
    C4429   C    0.17698   0.42581   0.54395   1.000
    C4430   C    0.15260   0.42837   0.59893   1.000
    C4431   C    0.17972   0.41248   0.61187   1.000
    C4432   C    0.75796   0.86192   0.60787   1.000
    C4433   C    0.74278   0.87001   0.59859   1.000
    C4434   C    0.73442   0.88634   0.60543   1.000
    C4435   C    0.74182   0.89470   0.62160   1.000
    C4436   C    0.75701   0.88661   0.63089   1.000
    C4437   C    0.76527   0.87009   0.62417   1.000
    C4438   C    0.71840   0.89444   0.59505   1.000
    C4439   C    0.70565   0.90562   0.60297   1.000
    C4440   C    0.68938   0.91348   0.59282   1.000
    C4441   C    0.67391   0.91946   0.60322   1.000
    C4442   C    0.65836   0.92726   0.59434   1.000
    C4443   C    0.65801   0.92937   0.57483   1.000
    C4444   C    0.67347   0.92343   0.56436   1.000
    C4445   C    0.68909   0.91566   0.57325   1.000
    C4446   C    0.76391   0.84929   0.60211   1.000
    C4447   C    0.73746   0.86339   0.58608   1.000
    C4448   C    0.73619   0.90765   0.62698   1.000
    C4449   C    0.76227   0.89344   0.64327   1.000
    C4450   C    0.71661   0.89012   0.58069   1.000
    C4451   C    0.70649   0.90845   0.61779   1.000
    C4452   C    0.67380   0.91800   0.61828   1.000
    C4453   C    0.64652   0.93149   0.60273   1.000
    C4454   C    0.67363   0.92516   0.54933   1.000
    C4455   C    0.70096   0.91180   0.56477   1.000
    C4456   C    0.76261   0.39190   0.13454   1.000
    C4457   C    0.74752   0.40119   0.12635   1.000
    C4458   C    0.73727   0.39286   0.11192   1.000
    C4459   C    0.74277   0.37506   0.10551   1.000
    C4460   C    0.75794   0.36571   0.11374   1.000
    C4461   C    0.76797   0.37398   0.12845   1.000
    C4462   C    0.72131   0.40348   0.10389   1.000
    C4463   C    0.70731   0.39558   0.09428   1.000
    C4464   C    0.69091   0.40614   0.08704   1.000
    C4465   C    0.67482   0.39608   0.08217   1.000
    C4466   C    0.65911   0.40526   0.07503   1.000
    C4467   C    0.65914   0.42475   0.07250   1.000
    C4468   C    0.67516   0.43492   0.07742   1.000
    C4469   C    0.69096   0.42572   0.08448   1.000
    C4470   C    0.77009   0.39897   0.14557   1.000
    C4471   C    0.74375   0.41495   0.13143   1.000
    C4472   C    0.73563   0.36836   0.09402   1.000
    C4473   C    0.76171   0.35200   0.10860   1.000
    C4474   C    0.72065   0.41823   0.10713   1.000
    C4475   C    0.70718   0.38058   0.09241   1.000
    C4476   C    0.67437   0.38104   0.08394   1.000
    C4477   C    0.64686   0.39709   0.07153   1.000
    C4478   C    0.67561   0.44992   0.07534   1.000
    C4479   C    0.70321   0.43402   0.08747   1.000
    C4480   C    0.74047   0.10859   0.13454   1.000
    C4481   C    0.75553   0.09945   0.12621   1.000
    C4482   C    0.76489   0.10746   0.11100   1.000
    C4483   C    0.75857   0.12483   0.10404   1.000
    C4484   C    0.74344   0.13402   0.11242   1.000
    C4485   C    0.73423   0.12604   0.12783   1.000
    C4486   C    0.78075   0.09692   0.10273   1.000
    C4487   C    0.79395   0.10466   0.09191   1.000
    C4488   C    0.81017   0.09412   0.08433   1.000
    C4489   C    0.82583   0.10424   0.07830   1.000
    C4490   C    0.84136   0.09505   0.07087   1.000
    C4491   C    0.84156   0.07547   0.06918   1.000
    C4492   C    0.82594   0.06527   0.07519   1.000
    C4493   C    0.81033   0.07448   0.08256   1.000
    C4494   C    0.73372   0.10175   0.14618   1.000
    C4495   C    0.75994   0.08603   0.13177   1.000
    C4496   C    0.76500   0.13128   0.09200   1.000
    C4497   C    0.73901   0.14737   0.10679   1.000
    C4498   C    0.78203   0.08237   0.10669   1.000
    C4499   C    0.79356   0.11955   0.08922   1.000
    C4500   C    0.82611   0.11935   0.07943   1.000
    C4501   C    0.85330   0.10328   0.06655   1.000
    C4502   C    0.82563   0.05020   0.07378   1.000
    C4503   C    0.79837   0.06612   0.08643   1.000
    C4504   C    0.75247   0.62084   0.64371   1.000
    C4505   C    0.76888   0.61324   0.63626   1.000
    C4506   C    0.77070   0.61070   0.61694   1.000
    C4507   C    0.75600   0.61627   0.60510   1.000
    C4508   C    0.73982   0.62432   0.61249   1.000
    C4509   C    0.73789   0.62660   0.63186   1.000
    C4510   C    0.78830   0.60304   0.60934   1.000
    C4511   C    0.78855   0.59132   0.59477   1.000
    C4512   C    0.80616   0.58389   0.58698   1.000
    C4513   C    0.80687   0.56534   0.58070   1.000
    C4514   C    0.82335   0.55808   0.57311   1.000
    C4515   C    0.83919   0.56947   0.57116   1.000
    C4516   C    0.83838   0.58815   0.57709   1.000
    C4517   C    0.82205   0.59527   0.58509   1.000
    C4518   C    0.75137   0.62265   0.65867   1.000
    C4519   C    0.78012   0.60919   0.64559   1.000
    C4520   C    0.75720   0.61484   0.59010   1.000
    C4521   C    0.72874   0.62861   0.60308   1.000
    C4522   C    0.80126   0.60651   0.61644   1.000
    C4523   C    0.77548   0.58628   0.58895   1.000
    C4524   C    0.79472   0.55641   0.58189   1.000
    C4525   C    0.82369   0.54366   0.56853   1.000
    C4526   C    0.85048   0.59714   0.57571   1.000
    C4527   C    0.82173   0.60976   0.58943   1.000
    C4528   C    0.24072   0.10662   0.64064   1.000
    C4529   C    0.25591   0.09708   0.63290   1.000
    C4530   C    0.26445   0.10361   0.61654   1.000
    C4531   C    0.25719   0.11971   0.60779   1.000
    C4532   C    0.24203   0.12926   0.61551   1.000
    C4533   C    0.23360   0.12288   0.63207   1.000
    C4534   C    0.28046   0.09299   0.60875   1.000
    C4535   C    0.29328   0.10071   0.59748   1.000
    C4536   C    0.30942   0.09041   0.58958   1.000
    C4537   C    0.32457   0.10080   0.58275   1.000
    C4538   C    0.33991   0.09187   0.57472   1.000
    C4539   C    0.34043   0.07229   0.57321   1.000
    C4540   C    0.32532   0.06182   0.58004   1.000
    C4541   C    0.30990   0.07077   0.58806   1.000
    C4542   C    0.23463   0.10113   0.65331   1.000
    C4543   C    0.26109   0.08459   0.63981   1.000
    C4544   C    0.26290   0.12486   0.59478   1.000
    C4545   C    0.23691   0.14157   0.60833   1.000
    C4546   C    0.28209   0.07862   0.61325   1.000
    C4547   C    0.29251   0.11554   0.59447   1.000
    C4548   C    0.32456   0.11593   0.58369   1.000
    C4549   C    0.35148   0.10029   0.56981   1.000
    C4550   C    0.32527   0.04672   0.57882   1.000
    C4551   C    0.29830   0.06224   0.59260   1.000
    C4552   C    0.24236   0.60830   0.13760   1.000
    C4553   C    0.25759   0.59924   0.12947   1.000
    C4554   C    0.26622   0.60665   0.11354   1.000
    C4555   C    0.25902   0.62323   0.10565   1.000
    C4556   C    0.24377   0.63232   0.11379   1.000
    C4557   C    0.23524   0.62500   0.12990   1.000
    C4558   C    0.28227   0.59640   0.10540   1.000
    C4559   C    0.29511   0.60448   0.09443   1.000
    C4560   C    0.31149   0.59442   0.08670   1.000
    C4561   C    0.32695   0.60494   0.08086   1.000
    C4562   C    0.34264   0.59616   0.07331   1.000
    C4563   C    0.34317   0.57663   0.07131   1.000
    C4564   C    0.32770   0.56604   0.07705   1.000
    C4565   C    0.31194   0.57484   0.08456   1.000
    C4566   C    0.23623   0.60208   0.14991   1.000
    C4567   C    0.26273   0.58640   0.13574   1.000
    C4568   C    0.26485   0.62910   0.09301   1.000
    C4569   C    0.23866   0.64502   0.10731   1.000
    C4570   C    0.28401   0.58193   0.10952   1.000
    C4571   C    0.29430   0.61936   0.09173   1.000
    C4572   C    0.32696   0.62003   0.08227   1.000
    C4573   C    0.35447   0.60466   0.06922   1.000
    C4574   C    0.32765   0.55099   0.07538   1.000
    C4575   C    0.30010   0.56624   0.08828   1.000
    C4576   C    0.74095   0.86209   0.89093   1.000
    C4577   C    0.75627   0.87001   0.90005   1.000
    C4578   C    0.76498   0.88601   0.89286   1.000
    C4579   C    0.75782   0.89416   0.87640   1.000
    C4580   C    0.74247   0.88623   0.86726   1.000
    C4581   C    0.73382   0.87009   0.87440   1.000
    C4582   C    0.78105   0.89400   0.90324   1.000
    C4583   C    0.79392   0.90512   0.89538   1.000
    C4584   C    0.81022   0.91284   0.90560   1.000
    C4585   C    0.82566   0.91896   0.89522   1.000
    C4586   C    0.84122   0.92665   0.90411   1.000
    C4587   C    0.84164   0.92854   0.92364   1.000
    C4588   C    0.82621   0.92245   0.93409   1.000
    C4589   C    0.81059   0.91478   0.92518   1.000
    C4590   C    0.73473   0.84974   0.89701   1.000
    C4591   C    0.76139   0.86352   0.91277   1.000
    C4592   C    0.76372   0.90684   0.87068   1.000
    C4593   C    0.73738   0.89291   0.85467   1.000
    C4594   C    0.78274   0.88969   0.91764   1.000
    C4595   C    0.79315   0.90802   0.88056   1.000
    C4596   C    0.82575   0.91769   0.88015   1.000
    C4597   C    0.85302   0.93097   0.89570   1.000
    C4598   C    0.82607   0.92400   0.94913   1.000
    C4599   C    0.79876   0.91081   0.93368   1.000
    C4600   C    0.74390   0.35769   0.38847   1.000
    C4601   C    0.75971   0.36513   0.39717   1.000
    C4602   C    0.76726   0.38224   0.39128   1.000
    C4603   C    0.75878   0.39162   0.37614   1.000
    C4604   C    0.74292   0.38418   0.36743   1.000
    C4605   C    0.73521   0.36713   0.37352   1.000
    C4606   C    0.78422   0.38936   0.40095   1.000
    C4607   C    0.78981   0.40727   0.40041   1.000
    C4608   C    0.80670   0.41436   0.41026   1.000
    C4609   C    0.80840   0.43370   0.41316   1.000
    C4610   C    0.82423   0.44110   0.42190   1.000
    C4611   C    0.83879   0.42931   0.42792   1.000
    C4612   C    0.83715   0.40995   0.42506   1.000
    C4613   C    0.82136   0.40254   0.41623   1.000
    C4614   C    0.73862   0.34446   0.39352   1.000
    C4615   C    0.76604   0.35747   0.40864   1.000
    C4616   C    0.76444   0.40455   0.37072   1.000
    C4617   C    0.73676   0.39185   0.35592   1.000
    C4618   C    0.79179   0.37944   0.40953   1.000
    C4619   C    0.78134   0.41751   0.39313   1.000
    C4620   C    0.79742   0.44315   0.40863   1.000
    C4621   C    0.82507   0.45607   0.42399   1.000
    C4622   C    0.84834   0.40057   0.42918   1.000
    C4623   C    0.82103   0.38765   0.41376   1.000
    C4624   C    0.24062   0.89221   0.35954   1.000
    C4625   C    0.25593   0.90161   0.36724   1.000
    C4626   C    0.26476   0.89482   0.38341   1.000
    C4627   C    0.25769   0.87859   0.39198   1.000
    C4628   C    0.24240   0.86920   0.38430   1.000
    C4629   C    0.23366   0.87584   0.36796   1.000
    C4630   C    0.28086   0.90532   0.39121   1.000
    C4631   C    0.29386   0.89743   0.40225   1.000
    C4632   C    0.31006   0.90761   0.41023   1.000
    C4633   C    0.32534   0.89713   0.41681   1.000
    C4634   C    0.34073   0.90595   0.42491   1.000
    C4635   C    0.34117   0.92550   0.42673   1.000
    C4636   C    0.32591   0.93606   0.42018   1.000
    C4637   C    0.31045   0.92722   0.41209   1.000
    C4638   C    0.23431   0.89788   0.34701   1.000
    C4639   C    0.26096   0.91419   0.36045   1.000
    C4640   C    0.26362   0.87324   0.40484   1.000
    C4641   C    0.23743   0.85680   0.39137   1.000
    C4642   C    0.28236   0.91975   0.38692   1.000
    C4643   C    0.29320   0.88256   0.40506   1.000
    C4644   C    0.32541   0.88203   0.41562   1.000
    C4645   C    0.35240   0.89745   0.42958   1.000
    C4646   C    0.32578   0.95113   0.42165   1.000
    C4647   C    0.29876   0.93581   0.40775   1.000
    C4648   C    0.24431   0.35835   0.89138   1.000
    C4649   C    0.26000   0.36572   0.90040   1.000
    C4650   C    0.26832   0.38230   0.89403   1.000
    C4651   C    0.26083   0.39115   0.87809   1.000
    C4652   C    0.24513   0.38378   0.86907   1.000
    C4653   C    0.23659   0.36732   0.87563   1.000
    C4654   C    0.28507   0.38949   0.90398   1.000
    C4655   C    0.29071   0.40738   0.90312   1.000
    C4656   C    0.30750   0.41472   0.91291   1.000
    C4657   C    0.30924   0.43416   0.91512   1.000
    C4658   C    0.32507   0.44182   0.92362   1.000
    C4659   C    0.33958   0.43022   0.93009   1.000
    C4660   C    0.33787   0.41076   0.92795   1.000
    C4661   C    0.32207   0.40308   0.91938   1.000
    C4662   C    0.23833   0.34558   0.89682   1.000
    C4663   C    0.26559   0.35848   0.91250   1.000
    C4664   C    0.26717   0.40358   0.87228   1.000
    C4665   C    0.23980   0.39107   0.85693   1.000
    C4666   C    0.29242   0.37973   0.91295   1.000
    C4667   C    0.28234   0.41744   0.89546   1.000
    C4668   C    0.29831   0.44348   0.91020   1.000
    C4669   C    0.32595   0.45686   0.92517   1.000
    C4670   C    0.34902   0.40149   0.93244   1.000
    C4671   C    0.32168   0.38810   0.91745   1.000
    O4672   O    0.39439   0.14315   0.23483   1.000
    O4673   O    0.38263   0.13353   0.23511   1.000
    O4674   O    0.37035   0.12205   0.23665   1.000
    O4675   O    0.36917   0.13409   0.22380   1.000
    O4676   O    0.36477   0.88459   0.23714   1.000
    O4677   O    0.37741   0.87333   0.23764   1.000
    O4678   O    0.36516   0.87183   0.22568   1.000
    O4679   O    0.13182   0.61731   0.23701   1.000
    O4680   O    0.12002   0.62942   0.23778   1.000
    O4681   O    0.13227   0.63027   0.22575   1.000
    O4682   O    0.14169   0.60565   0.23756   1.000
    O4683   O    0.86788   0.38323   0.23830   1.000
    O4684   O    0.87994   0.37139   0.23940   1.000
    O4685   O    0.86777   0.37011   0.22730   1.000
    O4686   O    0.35408   0.89546   0.23791   1.000
    O4687   O    0.85774   0.39467   0.23854   1.000
    O4688   O    0.13929   0.39151   0.23938   1.000
    O4689   O    0.13194   0.37827   0.23988   1.000
    O4690   O    0.12310   0.36400   0.24175   1.000
    O4691   O    0.13393   0.36533   0.22807   1.000
    O4692   O    0.38942   0.86407   0.23927   1.000
    O4693   O    0.63670   0.11859   0.24066   1.000
    O4694   O    0.62440   0.13021   0.24114   1.000
    O4695   O    0.63633   0.13104   0.22883   1.000
    O4696   O    0.36010   0.11116   0.23912   1.000
    O4697   O    0.86379   0.61782   0.24092   1.000
    O4698   O    0.87662   0.62881   0.24119   1.000
    O4699   O    0.86413   0.63070   0.22896   1.000
    O4700   O    0.10875   0.63950   0.23964   1.000
    O4701   O    0.62386   0.87118   0.24180   1.000
    O4702   O    0.63714   0.88162   0.24198   1.000
    O4703   O    0.63624   0.86940   0.22946   1.000
    O4704   O    0.39583   0.13329   0.24590   1.000
    O4705   O    0.64715   0.10749   0.24157   1.000
    O4706   O    0.85290   0.60730   0.24180   1.000
    O4707   O    0.89141   0.36159   0.24154   1.000
    O4708   O    0.61150   0.86245   0.24284   1.000
    O4709   O    0.88857   0.63802   0.24266   1.000
    O4710   O    0.61282   0.13998   0.24288   1.000
    O4711   O    0.13147   0.60433   0.24813   1.000
    O4712   O    0.64852   0.89157   0.24340   1.000
    O4713   O    0.36436   0.89731   0.24848   1.000
    O4714   O    0.37129   0.11030   0.24901   1.000
    O4715   O    0.86790   0.39636   0.24916   1.000
    O4716   O    0.38962   0.87482   0.24949   1.000
    O4717   O    0.10787   0.62853   0.24974   1.000
    O4718   O    0.11468   0.35172   0.24473   1.000
    O4719   O    0.12991   0.39097   0.25104   1.000
    O4720   O    0.89201   0.37271   0.25141   1.000
    O4721   O    0.63711   0.10614   0.25236   1.000
    O4722   O    0.86314   0.60530   0.25246   1.000
    O4723   O    0.88881   0.62727   0.25302   1.000
    O4724   O    0.61249   0.12935   0.25332   1.000
    O4725   O    0.61170   0.87279   0.25358   1.000
    O4726   O    0.63825   0.89366   0.25392   1.000
    O4727   O    0.11223   0.36242   0.25473   1.000
    O4728   O    0.40705   0.13239   0.25579   1.000
    O4729   O    0.39672   0.12167   0.25831   1.000
    O4730   O    0.13046   0.59333   0.25822   1.000
    O4731   O    0.11944   0.60350   0.26004   1.000
    O4732   O    0.36477   0.90814   0.25879   1.000
    O4733   O    0.37649   0.89870   0.26034   1.000
    O4734   O    0.86864   0.40752   0.25905   1.000
    O4735   O    0.87986   0.39760   0.26115   1.000
    O4736   O    0.38446   0.11017   0.25988   1.000
    O4737   O    0.37294   0.10025   0.25995   1.000
    O4738   O    0.40004   0.87692   0.25994   1.000
    O4739   O    0.38911   0.88746   0.26084   1.000
    O4740   O    0.09750   0.62693   0.26034   1.000
    O4741   O    0.10764   0.61559   0.26088   1.000
    O4742   O    0.90232   0.37469   0.26203   1.000
    O4743   O    0.89191   0.38579   0.26230   1.000
    O4744   O    0.12763   0.40157   0.26129   1.000
    O4745   O    0.11885   0.38943   0.26393   1.000
    O4746   O    0.86333   0.59463   0.26298   1.000
    O4747   O    0.87533   0.60372   0.26422   1.000
    O4748   O    0.63673   0.09558   0.26296   1.000
    O4749   O    0.62518   0.10523   0.26438   1.000
    O4750   O    0.89892   0.62542   0.26384   1.000
    O4751   O    0.88817   0.61470   0.26451   1.000
    O4752   O    0.60259   0.12802   0.26438   1.000
    O4753   O    0.61287   0.11681   0.26487   1.000
    O4754   O    0.60158   0.87471   0.26434   1.000
    O4755   O    0.61277   0.88494   0.26542   1.000
    O4756   O    0.63845   0.90396   0.26472   1.000
    O4757   O    0.62605   0.89536   0.26558   1.000
    O4758   O    0.11002   0.37514   0.26575   1.000
    O4759   O    0.10288   0.36184   0.26634   1.000
    O4760   O    0.39825   0.11007   0.27113   1.000
    O4761   O    0.10748   0.60200   0.27240   1.000
    O4762   O    0.38863   0.90064   0.27262   1.000
    O4763   O    0.89174   0.39946   0.27358   1.000
    O4764   O    0.88732   0.60176   0.27662   1.000
    O4765   O    0.61340   0.10382   0.27695   1.000
    O4766   O    0.10723   0.38766   0.27732   1.000
    O4767   O    0.61401   0.89758   0.27778   1.000
    O4768   O    0.41081   0.10817   0.27980   1.000
    O4769   O    0.39968   0.10087   0.28590   1.000
    O4770   O    0.36458   0.35401   0.28419   1.000
    O4771   O    0.35437   0.36546   0.28479   1.000
    O4772   O    0.36604   0.36596   0.27149   1.000
    O4773   O    0.10564   0.58958   0.28123   1.000
    O4774   O    0.09797   0.60067   0.28691   1.000
    O4775   O    0.39018   0.91299   0.28159   1.000
    O4776   O    0.39827   0.90198   0.28702   1.000
    O4777   O    0.14179   0.13595   0.28407   1.000
    O4778   O    0.12907   0.14389   0.28738   1.000
    O4779   O    0.12807   0.13395   0.27251   1.000
    O4780   O    0.15591   0.12952   0.28411   1.000
    O4781   O    0.89343   0.41203   0.28218   1.000
    O4782   O    0.90107   0.40102   0.28817   1.000
    O4783   O    0.63235   0.64719   0.28634   1.000
    O4784   O    0.64255   0.63570   0.28657   1.000
    O4785   O    0.62986   0.63469   0.27375   1.000
    O4786   O    0.10434   0.41446   0.28632   1.000
    O4787   O    0.85869   0.13594   0.28637   1.000
    O4788   O    0.86882   0.14741   0.28697   1.000
    O4789   O    0.87153   0.13546   0.27372   1.000
    O4790   O    0.86547   0.85801   0.28662   1.000
    O4791   O    0.85452   0.86876   0.28698   1.000
    O4792   O    0.86641   0.87076   0.27431   1.000
    O4793   O    0.14017   0.86290   0.28647   1.000
    O4794   O    0.12989   0.85158   0.28746   1.000
    O4795   O    0.12711   0.86337   0.27402   1.000
    O4796   O    0.36463   0.64534   0.28708   1.000
    O4797   O    0.35370   0.63461   0.28729   1.000
    O4798   O    0.36553   0.63296   0.27389   1.000
    O4799   O    0.91383   0.60133   0.28662   1.000
    O4800   O    0.58695   0.10403   0.28692   1.000
    O4801   O    0.58740   0.89900   0.28729   1.000
    O4802   O    0.63279   0.35387   0.28785   1.000
    O4803   O    0.64305   0.36528   0.28809   1.000
    O4804   O    0.63039   0.36639   0.27575   1.000
    O4805   O    0.89984   0.59715   0.28786   1.000
    O4806   O    0.88603   0.59228   0.28860   1.000
    O4807   O    0.60086   0.09953   0.28819   1.000
    O4808   O    0.61455   0.09432   0.28896   1.000
    O4809   O    0.37299   0.34129   0.28709   1.000
    O4810   O    0.10179   0.40016   0.28828   1.000
    O4811   O    0.09864   0.38595   0.28984   1.000
    O4812   O    0.60154   0.90258   0.28881   1.000
    O4813   O    0.61553   0.90683   0.28986   1.000
    O4814   O    0.15209   0.87250   0.28871   1.000
    O4815   O    0.84693   0.12625   0.28900   1.000
    O4816   O    0.15214   0.13886   0.29525   1.000
    O4817   O    0.34282   0.37509   0.28872   1.000
    O4818   O    0.62412   0.65994   0.28937   1.000
    O4819   O    0.87456   0.84571   0.28952   1.000
    O4820   O    0.37369   0.65751   0.29003   1.000
    O4821   O    0.65416   0.62602   0.29000   1.000
    O4822   O    0.36179   0.34470   0.29629   1.000
    O4823   O    0.62473   0.34095   0.29078   1.000
    O4824   O    0.84220   0.87740   0.29058   1.000
    O4825   O    0.34147   0.62583   0.29076   1.000
    O4826   O    0.87688   0.16005   0.29075   1.000
    O4827   O    0.34542   0.36297   0.29730   1.000
    O4828   O    0.65493   0.37468   0.29148   1.000
    O4829   O    0.12174   0.83913   0.29162   1.000
    O4830   O    0.15036   0.86085   0.29801   1.000
    O4831   O    0.91228   0.59271   0.29924   1.000
    O4832   O    0.09608   0.41257   0.29913   1.000
    O4833   O    0.84865   0.13808   0.29802   1.000
    O4834   O    0.63590   0.65663   0.29805   1.000
    O4835   O    0.58837   0.09516   0.29941   1.000
    O4836   O    0.86263   0.84807   0.29831   1.000
    O4837   O    0.65221   0.63829   0.29843   1.000
    O4838   O    0.58908   0.90761   0.29986   1.000
    O4839   O    0.36195   0.65487   0.29905   1.000
    O4840   O    0.84516   0.86529   0.29885   1.000
    O4841   O    0.86485   0.15643   0.29897   1.000
    O4842   O    0.38837   0.09425   0.29240   1.000
    O4843   O    0.34450   0.63770   0.29935   1.000
    O4844   O    0.63673   0.34395   0.29916   1.000
    O4845   O    0.40564   0.89073   0.29290   1.000
    O4846   O    0.40101   0.09188   0.30083   1.000
    O4847   O    0.09096   0.61196   0.29305   1.000
    O4848   O    0.13394   0.84274   0.29961   1.000
    O4849   O    0.65310   0.36218   0.29961   1.000
    O4850   O    0.40788   0.90318   0.30153   1.000
    O4851   O    0.08892   0.59938   0.30167   1.000
    O4852   O    0.11835   0.15290   0.29397   1.000
    O4853   O    0.13180   0.15155   0.30052   1.000
    O4854   O    0.90804   0.38980   0.29459   1.000
    O4855   O    0.91007   0.40247   0.30300   1.000
    O4856   O    0.08875   0.43987   0.30330   1.000
    O4857   O    0.43013   0.08865   0.30372   1.000
    O4858   O    0.56078   0.08917   0.30365   1.000
    O4859   O    0.08556   0.57032   0.30444   1.000
    O4860   O    0.56162   0.91404   0.30418   1.000
    O4861   O    0.41089   0.93222   0.30452   1.000
    O4862   O    0.93990   0.58730   0.30426   1.000
    O4863   O    0.91318   0.43158   0.30545   1.000
    O4864   O    0.14588   0.14839   0.30518   1.000
    O4865   O    0.16423   0.14387   0.31159   1.000
    O4866   O    0.35012   0.35030   0.30416   1.000
    O4867   O    0.35724   0.33368   0.31305   1.000
    O4868   O    0.33487   0.35754   0.31477   1.000
    O4869   O    0.64799   0.65106   0.30533   1.000
    O4870   O    0.64158   0.66761   0.31457   1.000
    O4871   O    0.85256   0.15059   0.30558   1.000
    O4872   O    0.83635   0.14244   0.31421   1.000
    O4873   O    0.14641   0.84854   0.30591   1.000
    O4874   O    0.16285   0.85666   0.31414   1.000
    O4875   O    0.85023   0.85270   0.30563   1.000
    O4876   O    0.85705   0.83605   0.31467   1.000
    O4877   O    0.66364   0.64361   0.31517   1.000
    O4878   O    0.83386   0.85913   0.31508   1.000
    O4879   O    0.85790   0.16705   0.31558   1.000
    O4880   O    0.64910   0.34916   0.30620   1.000
    O4881   O    0.64376   0.33182   0.31446   1.000
    O4882   O    0.34965   0.65006   0.30639   1.000
    O4883   O    0.35638   0.66644   0.31569   1.000
    O4884   O    0.66525   0.35630   0.31573   1.000
    O4885   O    0.33315   0.64326   0.31569   1.000
    O4886   O    0.14106   0.83243   0.31642   1.000
    O4887   O    0.13712   0.16060   0.31835   1.000
    O4888   O    0.08886   0.42553   0.30818   1.000
    O4889   O    0.08828   0.41000   0.31492   1.000
    O4890   O    0.92547   0.58649   0.30872   1.000
    O4891   O    0.90984   0.58500   0.31500   1.000
    O4892   O    0.57512   0.08861   0.30849   1.000
    O4893   O    0.59064   0.08737   0.31517   1.000
    O4894   O    0.57598   0.91440   0.30895   1.000
    O4895   O    0.59153   0.91543   0.31556   1.000
    O4896   O    0.08219   0.43869   0.31668   1.000
    O4897   O    0.41604   0.08739   0.30933   1.000
    O4898   O    0.40105   0.08506   0.31678   1.000
    O4899   O    0.56176   0.08258   0.31708   1.000
    O4900   O    0.43038   0.08288   0.31747   1.000
    O4901   O    0.41245   0.91809   0.31000   1.000
    O4902   O    0.41516   0.90301   0.31726   1.000
    O4903   O    0.56270   0.92058   0.31757   1.000
    O4904   O    0.93880   0.58091   0.31777   1.000
    O4905   O    0.08455   0.58438   0.31017   1.000
    O4906   O    0.08253   0.59935   0.31776   1.000
    O4907   O    0.41707   0.93233   0.31810   1.000
    O4908   O    0.08029   0.57002   0.31836   1.000
    O4909   O    0.91437   0.41755   0.31132   1.000
    O4910   O    0.91660   0.40262   0.31904   1.000
    O4911   O    0.91869   0.43196   0.31929   1.000
    O4912   O    0.18416   0.14352   0.32995   1.000
    O4913   O    0.89643   0.58335   0.32200   1.000
    O4914   O    0.90754   0.57788   0.33029   1.000
    O4915   O    0.08730   0.39669   0.32232   1.000
    O4916   O    0.08096   0.40764   0.33012   1.000
    O4917   O    0.35816   0.31453   0.33236   1.000
    O4918   O    0.60394   0.08592   0.32247   1.000
    O4919   O    0.59280   0.08008   0.33042   1.000
    O4920   O    0.60486   0.91674   0.32283   1.000
    O4921   O    0.59379   0.92270   0.33077   1.000
    O4922   O    0.64330   0.31253   0.33314   1.000
    O4923   O    0.17410   0.84397   0.32630   1.000
    O4924   O    0.18305   0.85814   0.33255   1.000
    O4925   O    0.16669   0.85139   0.33404   1.000
    O4926   O    0.82522   0.15517   0.32654   1.000
    O4927   O    0.81647   0.14107   0.33293   1.000
    O4928   O    0.83314   0.14785   0.33396   1.000
    O4929   O    0.84321   0.82579   0.32647   1.000
    O4930   O    0.85632   0.81623   0.33385   1.000
    O4931   O    0.85061   0.83306   0.33434   1.000
    O4932   O    0.64201   0.68649   0.33407   1.000
    O4933   O    0.81416   0.85901   0.33361   1.000
    O4934   O    0.38834   0.08244   0.32451   1.000
    O4935   O    0.07612   0.44969   0.32483   1.000
    O4936   O    0.07496   0.43633   0.33188   1.000
    O4937   O    0.40039   0.07820   0.33234   1.000
    O4938   O    0.41814   0.89019   0.32478   1.000
    O4939   O    0.42247   0.90217   0.33259   1.000
    O4940   O    0.68282   0.64273   0.33441   1.000
    O4941   O    0.32326   0.65699   0.32771   1.000
    O4942   O    0.31371   0.64377   0.33482   1.000
    O4943   O    0.33090   0.64935   0.33514   1.000
    O4944   O    0.55057   0.07698   0.32529   1.000
    O4945   O    0.56391   0.07529   0.33231   1.000
    O4946   O    0.31634   0.35756   0.33485   1.000
    O4947   O    0.67611   0.34251   0.32800   1.000
    O4948   O    0.66752   0.34948   0.33489   1.000
    O4949   O    0.68472   0.35558   0.33516   1.000
    O4950   O    0.35689   0.68564   0.33512   1.000
    O4951   O    0.85655   0.18568   0.33536   1.000
    O4952   O    0.44243   0.07849   0.32533   1.000
    O4953   O    0.42967   0.07600   0.33303   1.000
    O4954   O    0.55158   0.92625   0.32582   1.000
    O4955   O    0.56495   0.92778   0.33277   1.000
    O4956   O    0.08022   0.61205   0.32560   1.000
    O4957   O    0.07622   0.59997   0.33349   1.000
    O4958   O    0.94995   0.57572   0.32639   1.000
    O4959   O    0.93651   0.57382   0.33304   1.000
    O4960   O    0.42154   0.94430   0.32590   1.000
    O4961   O    0.42436   0.93146   0.33346   1.000
    O4962   O    0.07615   0.55795   0.32626   1.000
    O4963   O    0.07400   0.57068   0.33411   1.000
    O4964   O    0.14301   0.81368   0.33610   1.000
    O4965   O    0.91910   0.38996   0.32698   1.000
    O4966   O    0.92317   0.40209   0.33469   1.000
    O4967   O    0.92293   0.44409   0.32703   1.000
    O4968   O    0.14969   0.17180   0.32826   1.000
    O4969   O    0.92529   0.43139   0.33496   1.000
    O4970   O    0.13736   0.17830   0.33858   1.000
    O4971   O    0.32799   0.32428   0.34378   1.000
    O4972   O    0.67228   0.67592   0.34481   1.000
    O4973   O    0.20760   0.12380   0.33894   1.000
    O4974   O    0.20777   0.87689   0.33994   1.000
    O4975   O    0.37602   0.28948   0.34047   1.000
    O4976   O    0.79151   0.12265   0.34061   1.000
    O4977   O    0.62367   0.28884   0.34107   1.000
    O4978   O    0.78877   0.87699   0.34096   1.000
    O4979   O    0.70778   0.62421   0.34194   1.000
    O4980   O    0.07430   0.42080   0.33858   1.000
    O4981   O    0.07452   0.40651   0.34359   1.000
    O4982   O    0.57943   0.07403   0.33897   1.000
    O4983   O    0.59374   0.07370   0.34393   1.000
    O4984   O    0.92087   0.57229   0.33928   1.000
    O4985   O    0.90648   0.57168   0.34387   1.000
    O4986   O    0.62507   0.71167   0.34278   1.000
    O4987   O    0.58050   0.92887   0.33936   1.000
    O4988   O    0.59482   0.92907   0.34426   1.000
    O4989   O    0.87270   0.79009   0.34322   1.000
    O4990   O    0.06802   0.43428   0.34784   1.000
    O4991   O    0.28742   0.62761   0.34353   1.000
    O4992   O    0.56580   0.06816   0.34823   1.000
    O4993   O    0.19999   0.13645   0.34156   1.000
    O4994   O    0.19396   0.14952   0.34631   1.000
    O4995   O    0.56693   0.93467   0.34871   1.000
    O4996   O    0.29084   0.37492   0.34423   1.000
    O4997   O    0.41468   0.07365   0.34044   1.000
    O4998   O    0.40068   0.07220   0.34603   1.000
    O4999   O    0.37530   0.71053   0.34449   1.000
    O5000   O    0.71075   0.37174   0.34446   1.000
    O5001   O    0.93442   0.56690   0.34900   1.000
    O5002   O    0.42707   0.91638   0.34069   1.000
    O5003   O    0.42881   0.90232   0.34613   1.000
    O5004   O    0.42914   0.06854   0.34896   1.000
    O5005   O    0.43198   0.93080   0.34928   1.000
    O5006   O    0.87321   0.21123   0.34525   1.000
    O5007   O    0.07195   0.58566   0.34166   1.000
    O5008   O    0.07072   0.59963   0.34737   1.000
    O5009   O    0.12711   0.78755   0.34571   1.000
    O5010   O    0.06714   0.57116   0.35025   1.000
    O5011   O    0.19985   0.86458   0.34327   1.000
    O5012   O    0.19360   0.85192   0.34880   1.000
    O5013   O    0.36417   0.29810   0.34371   1.000
    O5014   O    0.35198   0.30522   0.34924   1.000
    O5015   O    0.92754   0.41645   0.34263   1.000
    O5016   O    0.92894   0.40251   0.34847   1.000
    O5017   O    0.79974   0.13477   0.34388   1.000
    O5018   O    0.80630   0.14729   0.34934   1.000
    O5019   O    0.93254   0.43096   0.35094   1.000
    O5020   O    0.79714   0.86490   0.34406   1.000
    O5021   O    0.80388   0.85237   0.34929   1.000
    O5022   O    0.21174   0.13258   0.35097   1.000
    O5023   O    0.63570   0.29697   0.34461   1.000
    O5024   O    0.64801   0.30367   0.35033   1.000
    O5025   O    0.86094   0.79922   0.34555   1.000
    O5026   O    0.84854   0.80667   0.35008   1.000
    O5027   O    0.69947   0.63628   0.34521   1.000
    O5028   O    0.69279   0.64875   0.35062   1.000
    O5029   O    0.63682   0.70279   0.34571   1.000
    O5030   O    0.64898   0.69532   0.35095   1.000
    O5031   O    0.33614   0.33141   0.35111   1.000
    O5032   O    0.21201   0.86838   0.35216   1.000
    O5033   O    0.29972   0.36299   0.34656   1.000
    O5034   O    0.30704   0.35050   0.35108   1.000
    O5035   O    0.29676   0.63908   0.34627   1.000
    O5036   O    0.30441   0.65119   0.35117   1.000
    O5037   O    0.36786   0.28634   0.35316   1.000
    O5038   O    0.78764   0.13111   0.35292   1.000
    O5039   O    0.36324   0.70192   0.34696   1.000
    O5040   O    0.35074   0.69486   0.35168   1.000
    O5041   O    0.78477   0.86798   0.35285   1.000
    O5042   O    0.70153   0.36014   0.34697   1.000
    O5043   O    0.69394   0.34790   0.35169   1.000
    O5044   O    0.66429   0.66865   0.35213   1.000
    O5045   O    0.86156   0.20202   0.34743   1.000
    O5046   O    0.84938   0.19424   0.35190   1.000
    O5047   O    0.75694   0.89197   0.35229   1.000
    O5048   O    0.63138   0.28548   0.35412   1.000
    O5049   O    0.13870   0.79682   0.34779   1.000
    O5050   O    0.15096   0.80460   0.35203   1.000
    O5051   O    0.16792   0.16798   0.34935   1.000
    O5052   O    0.71152   0.63263   0.35432   1.000
    O5053   O    0.11864   0.20116   0.34961   1.000
    O5054   O    0.23661   0.10552   0.35323   1.000
    O5055   O    0.23747   0.89505   0.35328   1.000
    O5056   O    0.63343   0.71432   0.35545   1.000
    O5057   O    0.86321   0.78702   0.35502   1.000
    O5058   O    0.13223   0.19486   0.34995   1.000
    O5059   O    0.14668   0.19061   0.35178   1.000
    O5060   O    0.28455   0.63683   0.35555   1.000
    O5061   O    0.28786   0.36562   0.35631   1.000
    O5062   O    0.71360   0.36247   0.35653   1.000
    O5063   O    0.60489   0.26116   0.35509   1.000
    O5064   O    0.36644   0.71353   0.35686   1.000
    O5065   O    0.86402   0.21363   0.35743   1.000
    O5066   O    0.39488   0.26153   0.35574   1.000
    O5067   O    0.13682   0.78480   0.35751   1.000
    O5068   O    0.76312   0.10364   0.35581   1.000
    O5069   O    0.73587   0.60517   0.35680   1.000
    O5070   O    0.12965   0.20762   0.35835   1.000
    O5071   O    0.18604   0.16682   0.35269   1.000
    O5072   O    0.20166   0.15403   0.35853   1.000
    O5073   O    0.16606   0.18512   0.35434   1.000
    O5074   O    0.26165   0.39045   0.36053   1.000
    O5075   O    0.39147   0.73965   0.36082   1.000
    O5076   O    0.60484   0.73649   0.36061   1.000
    O5077   O    0.11339   0.75762   0.36149   1.000
    O5078   O    0.18542   0.83507   0.35672   1.000
    O5079   O    0.20157   0.84763   0.36098   1.000
    O5080   O    0.88840   0.24094   0.36194   1.000
    O5081   O    0.81268   0.83581   0.35643   1.000
    O5082   O    0.79602   0.84744   0.36124   1.000
    O5083   O    0.88910   0.76096   0.36121   1.000
    O5084   O    0.73984   0.38802   0.36168   1.000
    O5085   O    0.15333   0.20042   0.36121   1.000
    O5086   O    0.81486   0.16396   0.35715   1.000
    O5087   O    0.79859   0.15162   0.36163   1.000
    O5088   O    0.33585   0.31467   0.35703   1.000
    O5089   O    0.34788   0.29817   0.36199   1.000
    O5090   O    0.83184   0.81626   0.35674   1.000
    O5091   O    0.84295   0.79945   0.36219   1.000
    O5092   O    0.06758   0.44617   0.36058   1.000
    O5093   O    0.05615   0.43367   0.36079   1.000
    O5094   O    0.55383   0.06783   0.36092   1.000
    O5095   O    0.56627   0.05628   0.36115   1.000
    O5096   O    0.44179   0.06833   0.36122   1.000
    O5097   O    0.42999   0.05618   0.36130   1.000
    O5098   O    0.68403   0.66528   0.35808   1.000
    O5099   O    0.70037   0.65309   0.36297   1.000
    O5100   O    0.66415   0.31262   0.35815   1.000
    O5101   O    0.65160   0.29669   0.36328   1.000
    O5102   O    0.55518   0.93467   0.36156   1.000
    O5103   O    0.56731   0.94647   0.36165   1.000
    O5104   O    0.31650   0.33396   0.35769   1.000
    O5105   O    0.30010   0.34516   0.36343   1.000
    O5106   O    0.43200   0.94336   0.36150   1.000
    O5107   O    0.44425   0.93162   0.36173   1.000
    O5108   O    0.31432   0.66735   0.35826   1.000
    O5109   O    0.29728   0.65662   0.36336   1.000
    O5110   O    0.93404   0.55508   0.36194   1.000
    O5111   O    0.94592   0.56713   0.36216   1.000
    O5112   O    0.66508   0.68523   0.35831   1.000
    O5113   O    0.65340   0.70194   0.36381   1.000
    O5114   O    0.16718   0.81477   0.35808   1.000
    O5115   O    0.26005   0.61005   0.36295   1.000
    O5116   O    0.68404   0.33146   0.35855   1.000
    O5117   O    0.70093   0.34246   0.36403   1.000
    O5118   O    0.15690   0.79777   0.36420   1.000
    O5119   O    0.33417   0.68588   0.35856   1.000
    O5120   O    0.34596   0.70170   0.36430   1.000
    O5121   O    0.83335   0.18403   0.35829   1.000
    O5122   O    0.84408   0.20068   0.36451   1.000
    O5123   O    0.07747   0.45745   0.36155   1.000
    O5124   O    0.06731   0.55843   0.36243   1.000
    O5125   O    0.05523   0.57030   0.36291   1.000
    O5126   O    0.54259   0.07783   0.36187   1.000
    O5127   O    0.73546   0.90412   0.36249   1.000
    O5128   O    0.21281   0.14359   0.36158   1.000
    O5129   O    0.22488   0.13012   0.36310   1.000
    O5130   O    0.74639   0.89386   0.36257   1.000
    O5131   O    0.75846   0.88187   0.36357   1.000
    O5132   O    0.04564   0.42295   0.36201   1.000
    O5133   O    0.93257   0.44361   0.36311   1.000
    O5134   O    0.94485   0.43191   0.36322   1.000
    O5135   O    0.45260   0.07876   0.36222   1.000
    O5136   O    0.57692   0.04565   0.36237   1.000
    O5137   O    0.42002   0.04496   0.36232   1.000
    O5138   O    0.10142   0.23032   0.36392   1.000
    O5139   O    0.42145   0.95410   0.36239   1.000
    O5140   O    0.92386   0.54404   0.36275   1.000
    O5141   O    0.54422   0.92445   0.36261   1.000
    O5142   O    0.23631   0.11672   0.36345   1.000
    O5143   O    0.24723   0.10360   0.36352   1.000
    O5144   O    0.57771   0.95729   0.36274   1.000
    O5145   O    0.24827   0.89691   0.36339   1.000
    O5146   O    0.23714   0.88403   0.36375   1.000
    O5147   O    0.07772   0.54753   0.36306   1.000
    O5148   O    0.45555   0.92170   0.36289   1.000
    O5149   O    0.21309   0.85779   0.36321   1.000
    O5150   O    0.22547   0.87086   0.36394   1.000
    O5151   O    0.95666   0.57756   0.36346   1.000
    O5152   O    0.78406   0.85707   0.36360   1.000
    O5153   O    0.77111   0.86969   0.36435   1.000
    O5154   O    0.25845   0.90790   0.36385   1.000
    O5155   O    0.78694   0.14163   0.36399   1.000
    O5156   O    0.77431   0.12880   0.36486   1.000
    O5157   O    0.92202   0.45433   0.36404   1.000
    O5158   O    0.25719   0.09242   0.36430   1.000
    O5159   O    0.95616   0.42205   0.36421   1.000
    O5160   O    0.35769   0.28637   0.36459   1.000
    O5161   O    0.37042   0.27356   0.36558   1.000
    O5162   O    0.04408   0.58031   0.36427   1.000
    O5163   O    0.60284   0.25061   0.36532   1.000
    O5164   O    0.61567   0.26184   0.36585   1.000
    O5165   O    0.76288   0.11542   0.36533   1.000
    O5166   O    0.75200   0.10232   0.36563   1.000
    O5167   O    0.38364   0.26196   0.36592   1.000
    O5168   O    0.39660   0.25089   0.36601   1.000
    O5169   O    0.59190   0.24041   0.36561   1.000
    O5170   O    0.71209   0.64314   0.36543   1.000
    O5171   O    0.72480   0.63024   0.36625   1.000
    O5172   O    0.64135   0.28528   0.36581   1.000
    O5173   O    0.62859   0.27312   0.36630   1.000
    O5174   O    0.73620   0.61682   0.36651   1.000
    O5175   O    0.74705   0.60365   0.36653   1.000
    O5176   O    0.85197   0.78719   0.36539   1.000
    O5177   O    0.86371   0.77367   0.36734   1.000
    O5178   O    0.28489   0.64780   0.36621   1.000
    O5179   O    0.27125   0.63631   0.36769   1.000
    O5180   O    0.40763   0.24078   0.36685   1.000
    O5181   O    0.64377   0.71381   0.36676   1.000
    O5182   O    0.63103   0.72666   0.36814   1.000
    O5183   O    0.74204   0.09118   0.36662   1.000
    O5184   O    0.75699   0.59245   0.36725   1.000
    O5185   O    0.28813   0.35446   0.36685   1.000
    O5186   O    0.27538   0.36639   0.36878   1.000
    O5187   O    0.21078   0.15628   0.37024   1.000
    O5188   O    0.14281   0.21110   0.36541   1.000
    O5189   O    0.12892   0.22236   0.36856   1.000
    O5190   O    0.71321   0.35143   0.36718   1.000
    O5191   O    0.72674   0.36317   0.36896   1.000
    O5192   O    0.06790   0.45765   0.37317   1.000
    O5193   O    0.35561   0.71335   0.36768   1.000
    O5194   O    0.36775   0.72579   0.36956   1.000
    O5195   O    0.54232   0.06818   0.37347   1.000
    O5196   O    0.04486   0.43263   0.37356   1.000
    O5197   O    0.45380   0.06863   0.37340   1.000
    O5198   O    0.14820   0.78540   0.36778   1.000
    O5199   O    0.13680   0.77218   0.36984   1.000
    O5200   O    0.43006   0.04424   0.37354   1.000
    O5201   O    0.43144   0.95532   0.37365   1.000
    O5202   O    0.85309   0.21279   0.36811   1.000
    O5203   O    0.86496   0.22616   0.37040   1.000
    O5204   O    0.56727   0.04494   0.37391   1.000
    O5205   O    0.54386   0.93396   0.37427   1.000
    O5206   O    0.45604   0.93171   0.37412   1.000
    O5207   O    0.56817   0.95772   0.37442   1.000
    O5208   O    0.93307   0.54380   0.37472   1.000
    O5209   O    0.61720   0.73735   0.36944   1.000
    O5210   O    0.60362   0.74761   0.37034   1.000
    O5211   O    0.73470   0.89534   0.37478   1.000
    O5212   O    0.06795   0.54632   0.37450   1.000
    O5213   O    0.15744   0.21138   0.37059   1.000
    O5214   O    0.21095   0.84565   0.37255   1.000
    O5215   O    0.95691   0.56804   0.37518   1.000
    O5216   O    0.26330   0.37862   0.37000   1.000
    O5217   O    0.25137   0.39082   0.37128   1.000
    O5218   O    0.87632   0.76144   0.36932   1.000
    O5219   O    0.88867   0.74977   0.37117   1.000
    O5220   O    0.78664   0.84474   0.37265   1.000
    O5221   O    0.93209   0.45557   0.37527   1.000
    O5222   O    0.38004   0.73779   0.37064   1.000
    O5223   O    0.39221   0.74971   0.37179   1.000
    O5224   O    0.78946   0.15365   0.37333   1.000
    O5225   O    0.26035   0.89822   0.37533   1.000
    O5226   O    0.04370   0.57021   0.37546   1.000
    O5227   O    0.95675   0.43201   0.37546   1.000
    O5228   O    0.23722   0.12840   0.37559   1.000
    O5229   O    0.73907   0.37566   0.37048   1.000
    O5230   O    0.75085   0.38790   0.37179   1.000
    O5231   O    0.25913   0.10221   0.37562   1.000
    O5232   O    0.12512   0.75965   0.37100   1.000
    O5233   O    0.11342   0.74728   0.37220   1.000
    O5234   O    0.34604   0.28958   0.37419   1.000
    O5235   O    0.25953   0.62344   0.37000   1.000
    O5236   O    0.24842   0.61077   0.37228   1.000
    O5237   O    0.23803   0.87252   0.37613   1.000
    O5238   O    0.83959   0.79068   0.37388   1.000
    O5239   O    0.87706   0.23885   0.37178   1.000
    O5240   O    0.88897   0.25099   0.37292   1.000
    O5241   O    0.75873   0.87121   0.37672   1.000
    O5242   O    0.11485   0.23269   0.37063   1.000
    O5243   O    0.10101   0.24250   0.37237   1.000
    O5244   O    0.70943   0.65518   0.37477   1.000
    O5245   O    0.76138   0.12779   0.37671   1.000
    O5246   O    0.59210   0.75706   0.37177   1.000
    O5247   O    0.28851   0.65983   0.37509   1.000
    O5248   O    0.60120   0.23876   0.37741   1.000
    O5249   O    0.65305   0.28824   0.37560   1.000
    O5250   O    0.29170   0.34194   0.37533   1.000
    O5251   O    0.73957   0.10163   0.37723   1.000
    O5252   O    0.65547   0.71015   0.37623   1.000
    O5253   O    0.37190   0.26122   0.37804   1.000
    O5254   O    0.70955   0.33921   0.37590   1.000
    O5255   O    0.39777   0.23901   0.37812   1.000
    O5256   O    0.62678   0.26124   0.37860   1.000
    O5257   O    0.16074   0.78937   0.37601   1.000
    O5258   O    0.73780   0.62900   0.37808   1.000
    O5259   O    0.75958   0.60271   0.37801   1.000
    O5260   O    0.34328   0.70995   0.37640   1.000
    O5261   O    0.24080   0.40121   0.37322   1.000
    O5262   O    0.84091   0.20874   0.37672   1.000
    O5263   O    0.76161   0.39809   0.37343   1.000
    O5264   O    0.40260   0.76029   0.37361   1.000
    O5265   O    0.10372   0.73608   0.37379   1.000
    O5266   O    0.89894   0.73910   0.37327   1.000
    O5267   O    0.89916   0.26170   0.37473   1.000
    O5268   O    0.86256   0.76063   0.37906   1.000
    O5269   O    0.25763   0.63790   0.37853   1.000
    O5270   O    0.63012   0.73946   0.38014   1.000
    O5271   O    0.08933   0.25162   0.37443   1.000
    O5272   O    0.12909   0.23666   0.37883   1.000
    O5273   O    0.23819   0.60021   0.37473   1.000
    O5274   O    0.26382   0.36615   0.38144   1.000
    O5275   O    0.73956   0.36241   0.38100   1.000
    O5276   O    0.36803   0.73702   0.38247   1.000
    O5277   O    0.13763   0.76041   0.38235   1.000
    O5278   O    0.60300   0.76008   0.38180   1.000
    O5279   O    0.86508   0.23774   0.38361   1.000
    O5280   O    0.88730   0.73741   0.38288   1.000
    O5281   O    0.24000   0.39047   0.38396   1.000
    O5282   O    0.76302   0.38693   0.38371   1.000
    O5283   O    0.10139   0.25633   0.38222   1.000
    O5284   O    0.39226   0.76081   0.38470   1.000
    O5285   O    0.23556   0.61250   0.38328   1.000
    O5286   O    0.11417   0.73584   0.38481   1.000
    O5287   O    0.88882   0.26206   0.38584   1.000
    O5288   O    0.17557   0.41906   0.38778   1.000
    O5289   O    0.20791   0.40737   0.38772   1.000
    O5290   O    0.71035   0.90658   0.38551   1.000
    O5291   O    0.40899   0.79296   0.38872   1.000
    O5292   O    0.41992   0.82551   0.38898   1.000
    O5293   O    0.45386   0.05677   0.38555   1.000
    O5294   O    0.46568   0.06962   0.38635   1.000
    O5295   O    0.05672   0.45665   0.38579   1.000
    O5296   O    0.06913   0.46894   0.38644   1.000
    O5297   O    0.44193   0.04454   0.38561   1.000
    O5298   O    0.42929   0.03243   0.38643   1.000
    O5299   O    0.44315   0.95541   0.38592   1.000
    O5300   O    0.43013   0.96714   0.38651   1.000
    O5301   O    0.91819   0.32586   0.38943   1.000
    O5302   O    0.54326   0.05691   0.38609   1.000
    O5303   O    0.53095   0.06934   0.38669   1.000
    O5304   O    0.04510   0.44412   0.38597   1.000
    O5305   O    0.03353   0.43106   0.38690   1.000
    O5306   O    0.90525   0.29420   0.38958   1.000
    O5307   O    0.45550   0.94354   0.38616   1.000
    O5308   O    0.46771   0.93096   0.38714   1.000
    O5309   O    0.55577   0.04523   0.38631   1.000
    O5310   O    0.56886   0.03363   0.38726   1.000
    O5311   O    0.05649   0.54625   0.38697   1.000
    O5312   O    0.06929   0.53430   0.38729   1.000
    O5313   O    0.54468   0.94512   0.38692   1.000
    O5314   O    0.53270   0.93239   0.38757   1.000
    O5315   O    0.55686   0.95709   0.38698   1.000
    O5316   O    0.56959   0.96903   0.38771   1.000
    O5317   O    0.72251   0.89734   0.38687   1.000
    O5318   O    0.73495   0.88469   0.38792   1.000
    O5319   O    0.94403   0.54464   0.38762   1.000
    O5320   O    0.93138   0.53254   0.38804   1.000
    O5321   O    0.27281   0.90007   0.38731   1.000
    O5322   O    0.26123   0.88671   0.38770   1.000
    O5323   O    0.94390   0.45564   0.38747   1.000
    O5324   O    0.93089   0.46743   0.38812   1.000
    O5325   O    0.95629   0.44379   0.38755   1.000
    O5326   O    0.96853   0.43115   0.38829   1.000
    O5327   O    0.04432   0.55826   0.38745   1.000
    O5328   O    0.03229   0.57096   0.38859   1.000
    O5329   O    0.27146   0.10021   0.38771   1.000
    O5330   O    0.26006   0.11387   0.38776   1.000
    O5331   O    0.23908   0.13807   0.38710   1.000
    O5332   O    0.24907   0.12695   0.38779   1.000
    O5333   O    0.95599   0.55683   0.38786   1.000
    O5334   O    0.96781   0.56971   0.38875   1.000
    O5335   O    0.23992   0.86300   0.38784   1.000
    O5336   O    0.25005   0.87390   0.38814   1.000
    O5337   O    0.75890   0.13813   0.38751   1.000
    O5338   O    0.74900   0.12705   0.38838   1.000
    O5339   O    0.41755   0.97807   0.38781   1.000
    O5340   O    0.40232   0.99031   0.38970   1.000
    O5341   O    0.41711   0.02119   0.38784   1.000
    O5342   O    0.40215   0.00864   0.38972   1.000
    O5343   O    0.08141   0.48009   0.38792   1.000
    O5344   O    0.09652   0.49245   0.38993   1.000
    O5345   O    0.47672   0.08205   0.38791   1.000
    O5346   O    0.48911   0.09700   0.39018   1.000
    O5347   O    0.73808   0.11399   0.38860   1.000
    O5348   O    0.72677   0.10033   0.38891   1.000
    O5349   O    0.14112   0.24132   0.38679   1.000
    O5350   O    0.12945   0.25047   0.38880   1.000
    O5351   O    0.51983   0.08169   0.38822   1.000
    O5352   O    0.50743   0.09681   0.39032   1.000
    O5353   O    0.08172   0.52321   0.38841   1.000
    O5354   O    0.09669   0.51077   0.39013   1.000
    O5355   O    0.25466   0.65037   0.38664   1.000
    O5356   O    0.24466   0.63969   0.38934   1.000
    O5357   O    0.74691   0.87256   0.38886   1.000
    O5358   O    0.75777   0.86228   0.38896   1.000
    O5359   O    0.02272   0.41846   0.38852   1.000
    O5360   O    0.01047   0.40342   0.39071   1.000
    O5361   O    0.47903   0.91880   0.38868   1.000
    O5362   O    0.49172   0.90398   0.39074   1.000
    O5363   O    0.59899   0.22647   0.38945   1.000
    O5364   O    0.61230   0.23814   0.39013   1.000
    O5365   O    0.77246   0.60111   0.38953   1.000
    O5366   O    0.76120   0.61488   0.38958   1.000
    O5367   O    0.58156   0.02289   0.38895   1.000
    O5368   O    0.59682   0.01071   0.39114   1.000
    O5369   O    0.52197   0.91979   0.38906   1.000
    O5370   O    0.50995   0.90441   0.39091   1.000
    O5371   O    0.91887   0.52163   0.38929   1.000
    O5372   O    0.90362   0.50944   0.39099   1.000
    O5373   O    0.74035   0.63917   0.38901   1.000
    O5374   O    0.75029   0.62801   0.38966   1.000
    O5375   O    0.91846   0.47855   0.38936   1.000
    O5376   O    0.90342   0.49112   0.39104   1.000
    O5377   O    0.58204   0.97999   0.38924   1.000
    O5378   O    0.59703   0.99245   0.39126   1.000
    O5379   O    0.97975   0.41889   0.38958   1.000
    O5380   O    0.99221   0.40366   0.39119   1.000
    O5381   O    0.39948   0.22670   0.39022   1.000
    O5382   O    0.38605   0.23826   0.39025   1.000
    O5383   O    0.36215   0.25948   0.38950   1.000
    O5384   O    0.37314   0.24940   0.39025   1.000
    O5385   O    0.85074   0.75860   0.38836   1.000
    O5386   O    0.86115   0.74818   0.39064   1.000
    O5387   O    0.28161   0.91254   0.38907   1.000
    O5388   O    0.02119   0.58322   0.39022   1.000
    O5389   O    0.00872   0.59813   0.39226   1.000
    O5390   O    0.63592   0.25953   0.39068   1.000
    O5391   O    0.62504   0.24940   0.39080   1.000
    O5392   O    0.97845   0.58241   0.39043   1.000
    O5393   O    0.99055   0.59777   0.39237   1.000
    O5394   O    0.28013   0.08763   0.38952   1.000
    O5395   O    0.64096   0.74237   0.39033   1.000
    O5396   O    0.62944   0.75185   0.39176   1.000
    O5397   O    0.11560   0.26032   0.39045   1.000
    O5398   O    0.10102   0.27048   0.39215   1.000
    O5399   O    0.58652   0.21764   0.39084   1.000
    O5400   O    0.74126   0.35108   0.39100   1.000
    O5401   O    0.75180   0.36141   0.39282   1.000
    O5402   O    0.67744   0.91646   0.39650   1.000
    O5403   O    0.61590   0.76222   0.39252   1.000
    O5404   O    0.60175   0.77301   0.39315   1.000
    O5405   O    0.71804   0.08787   0.39108   1.000
    O5406   O    0.78112   0.58853   0.39138   1.000
    O5407   O    0.45283   0.04584   0.39591   1.000
    O5408   O    0.26300   0.35563   0.39248   1.000
    O5409   O    0.25243   0.36590   0.39414   1.000
    O5410   O    0.23369   0.62696   0.39180   1.000
    O5411   O    0.22220   0.61440   0.39480   1.000
    O5412   O    0.04638   0.45475   0.39654   1.000
    O5413   O    0.45395   0.95440   0.39642   1.000
    O5414   O    0.41192   0.21787   0.39216   1.000
    O5415   O    0.87353   0.73664   0.39261   1.000
    O5416   O    0.88573   0.72454   0.39513   1.000
    O5417   O    0.54513   0.04652   0.39687   1.000
    O5418   O    0.14831   0.75976   0.39323   1.000
    O5419   O    0.13844   0.74881   0.39488   1.000
    O5420   O    0.71151   0.90215   0.39944   1.000
    O5421   O    0.35795   0.73758   0.39390   1.000
    O5422   O    0.36820   0.74810   0.39542   1.000
    O5423   O    0.54640   0.95546   0.39769   1.000
    O5424   O    0.47684   0.07098   0.39866   1.000
    O5425   O    0.42798   0.02131   0.39877   1.000
    O5426   O    0.42843   0.97824   0.39875   1.000
    O5427   O    0.28736   0.90138   0.39673   1.000
    O5428   O    0.04590   0.54728   0.39764   1.000
    O5429   O    0.07065   0.47979   0.39892   1.000
    O5430   O    0.76349   0.37369   0.39423   1.000
    O5431   O    0.77574   0.38580   0.39612   1.000
    O5432   O    0.51991   0.07065   0.39901   1.000
    O5433   O    0.95481   0.45461   0.39789   1.000
    O5434   O    0.28590   0.09857   0.39735   1.000
    O5435   O    0.02277   0.42925   0.39948   1.000
    O5436   O    0.25956   0.12486   0.39822   1.000
    O5437   O    0.07094   0.52291   0.39937   1.000
    O5438   O    0.85498   0.23788   0.39492   1.000
    O5439   O    0.86501   0.24877   0.39657   1.000
    O5440   O    0.95417   0.54644   0.39864   1.000
    O5441   O    0.47877   0.92968   0.39957   1.000
    O5442   O    0.26066   0.87592   0.39841   1.000
    O5443   O    0.24055   0.37801   0.39537   1.000
    O5444   O    0.22829   0.39013   0.39729   1.000
    O5445   O    0.57065   0.02282   0.39981   1.000
    O5446   O    0.73813   0.12558   0.39841   1.000
    O5447   O    0.52175   0.93063   0.39997   1.000
    O5448   O    0.57114   0.97997   0.40010   1.000
    O5449   O    0.73610   0.87426   0.39897   1.000
    O5450   O    0.12892   0.26256   0.39748   1.000
    O5451   O    0.92954   0.52154   0.40043   1.000
    O5452   O    0.92919   0.47850   0.40043   1.000
    O5453   O    0.12668   0.73661   0.39614   1.000
    O5454   O    0.11500   0.72391   0.39790   1.000
    O5455   O    0.71214   0.09919   0.39830   1.000
    O5456   O    0.38025   0.75998   0.39650   1.000
    O5457   O    0.39224   0.77227   0.39827   1.000
    O5458   O    0.97979   0.42970   0.40053   1.000
    O5459   O    0.78558   0.41239   0.39677   1.000
    O5460   O    0.59740   0.21198   0.39892   1.000
    O5461   O    0.78727   0.59967   0.39862   1.000
    O5462   O    0.76131   0.62630   0.39959   1.000
    O5463   O    0.02137   0.57226   0.40109   1.000
    O5464   O    0.58908   0.78135   0.39537   1.000
    O5465   O    0.23301   0.64041   0.39865   1.000
    O5466   O    0.97856   0.57150   0.40134   1.000
    O5467   O    0.91236   0.71486   0.39717   1.000
    O5468   O    0.87684   0.26094   0.39766   1.000
    O5469   O    0.88871   0.27349   0.39938   1.000
    O5470   O    0.40074   0.21222   0.39974   1.000
    O5471   O    0.37506   0.23892   0.40071   1.000
    O5472   O    0.08833   0.27849   0.39522   1.000
    O5473   O    0.08855   0.71404   0.39834   1.000
    O5474   O    0.62274   0.23889   0.40115   1.000
    O5475   O    0.38920   0.00854   0.40236   1.000
    O5476   O    0.38949   0.99021   0.40248   1.000
    O5477   O    0.21388   0.39984   0.39881   1.000
    O5478   O    0.19933   0.40933   0.40029   1.000
    O5479   O    0.86070   0.73697   0.40056   1.000
    O5480   O    0.10957   0.49214   0.40247   1.000
    O5481   O    0.10942   0.51035   0.40308   1.000
    O5482   O    0.16786   0.42318   0.39989   1.000
    O5483   O    0.18340   0.41625   0.40042   1.000
    O5484   O    0.50750   0.10954   0.40319   1.000
    O5485   O    0.48918   0.10945   0.40333   1.000
    O5486   O    0.62800   0.76282   0.40175   1.000
    O5487   O    0.09992   0.28602   0.40005   1.000
    O5488   O    0.40179   0.78675   0.39983   1.000
    O5489   O    0.41090   0.80147   0.40135   1.000
    O5490   O    0.51023   0.89137   0.40354   1.000
    O5491   O    0.49196   0.89123   0.40358   1.000
    O5492   O    0.21424   0.58756   0.39887   1.000
    O5493   O    0.15416   0.42919   0.40030   1.000
    O5494   O    0.89055   0.50968   0.40354   1.000
    O5495   O    0.89031   0.49135   0.40358   1.000
    O5496   O    0.01066   0.39056   0.40357   1.000
    O5497   O    0.99229   0.39060   0.40369   1.000
    O5498   O    0.42387   0.83324   0.40114   1.000
    O5499   O    0.41740   0.81753   0.40158   1.000
    O5500   O    0.60966   0.01090   0.40402   1.000
    O5501   O    0.60977   0.99257   0.40421   1.000
    O5502   O    0.92259   0.33355   0.40146   1.000
    O5503   O    0.91513   0.31828   0.40215   1.000
    O5504   O    0.89821   0.28801   0.40082   1.000
    O5505   O    0.90771   0.30260   0.40215   1.000
    O5506   O    0.60033   0.78785   0.40210   1.000
    O5507   O    0.76287   0.36130   0.40291   1.000
    O5508   O    0.42952   0.84706   0.40163   1.000
    O5509   O    0.92906   0.34702   0.40173   1.000
    O5510   O    0.99044   0.61082   0.40494   1.000
    O5511   O    0.00870   0.61075   0.40514   1.000
    O5512   O    0.24214   0.36642   0.40495   1.000
    O5513   O    0.13840   0.73827   0.40554   1.000
    O5514   O    0.21163   0.60186   0.40066   1.000
    O5515   O    0.20946   0.61619   0.40299   1.000
    O5516   O    0.36904   0.75814   0.40642   1.000
    O5517   O    0.89815   0.71334   0.40035   1.000
    O5518   O    0.88405   0.71224   0.40415   1.000
    O5519   O    0.78701   0.39832   0.40068   1.000
    O5520   O    0.79825   0.41082   0.40534   1.000
    O5521   O    0.91054   0.70221   0.40575   1.000
    O5522   O    0.78801   0.38440   0.40524   1.000
    O5523   O    0.86568   0.25882   0.40761   1.000
    O5524   O    0.20111   0.58926   0.40660   1.000
    O5525   O    0.65614   0.92891   0.40674   1.000
    O5526   O    0.10254   0.71271   0.40253   1.000
    O5527   O    0.09001   0.70151   0.40713   1.000
    O5528   O    0.29353   0.89000   0.40365   1.000
    O5529   O    0.30196   0.90252   0.40624   1.000
    O5530   O    0.21938   0.39164   0.40967   1.000
    O5531   O    0.11636   0.71191   0.40741   1.000
    O5532   O    0.29209   0.10972   0.40449   1.000
    O5533   O    0.30052   0.09706   0.40681   1.000
    O5534   O    0.39392   0.78099   0.41073   1.000
    O5535   O    0.70584   0.11068   0.40484   1.000
    O5536   O    0.69748   0.09817   0.40777   1.000
    O5537   O    0.79382   0.61099   0.40517   1.000
    O5538   O    0.80216   0.59832   0.40766   1.000
    O5539   O    0.66962   0.92242   0.40763   1.000
    O5540   O    0.68484   0.91501   0.40974   1.000
    O5541   O    0.11157   0.29380   0.40429   1.000
    O5542   O    0.09886   0.30164   0.40785   1.000
    O5543   O    0.15990   0.42758   0.41424   1.000
    O5544   O    0.60852   0.20587   0.40629   1.000
    O5545   O    0.59593   0.19735   0.40830   1.000
    O5546   O    0.89050   0.28223   0.41185   1.000
    O5547   O    0.38934   0.20611   0.40659   1.000
    O5548   O    0.40187   0.19759   0.40911   1.000
    O5549   O    0.19100   0.41369   0.41533   1.000
    O5550   O    0.42810   0.84120   0.41553   1.000
    O5551   O    0.92724   0.34151   0.41572   1.000
    O5552   O    0.48931   0.07262   0.41382   1.000
    O5553   O    0.42625   0.99062   0.41375   1.000
    O5554   O    0.42608   0.00890   0.41377   1.000
    O5555   O    0.50759   0.07247   0.41400   1.000
    O5556   O    0.07281   0.49183   0.41411   1.000
    O5557   O    0.41514   0.80979   0.41645   1.000
    O5558   O    0.07296   0.51014   0.41427   1.000
    O5559   O    0.61173   0.79476   0.40814   1.000
    O5560   O    0.59896   0.80293   0.41064   1.000
    O5561   O    0.01060   0.42717   0.41481   1.000
    O5562   O    0.49114   0.92789   0.41472   1.000
    O5563   O    0.91235   0.31095   0.41714   1.000
    O5564   O    0.57277   0.01059   0.41499   1.000
    O5565   O    0.30331   0.06791   0.40970   1.000
    O5566   O    0.50942   0.92829   0.41492   1.000
    O5567   O    0.57298   0.99238   0.41511   1.000
    O5568   O    0.30461   0.93152   0.40992   1.000
    O5569   O    0.92701   0.49090   0.41542   1.000
    O5570   O    0.92715   0.50919   0.41544   1.000
    O5571   O    0.99233   0.42743   0.41529   1.000
    O5572   O    0.70056   0.90707   0.41200   1.000
    O5573   O    0.71318   0.89840   0.41351   1.000
    O5574   O    0.80291   0.43843   0.41090   1.000
    O5575   O    0.00904   0.57405   0.41623   1.000
    O5576   O    0.99081   0.57373   0.41637   1.000
    O5577   O    0.56684   0.19481   0.41119   1.000
    O5578   O    0.80473   0.56923   0.41129   1.000
    O5579   O    0.69462   0.06916   0.41169   1.000
    O5580   O    0.11182   0.47942   0.41720   1.000
    O5581   O    0.38699   0.02090   0.41734   1.000
    O5582   O    0.38766   0.97782   0.41758   1.000
    O5583   O    0.93797   0.69762   0.41233   1.000
    O5584   O    0.31026   0.91742   0.41116   1.000
    O5585   O    0.31770   0.90237   0.41352   1.000
    O5586   O    0.80755   0.42403   0.41171   1.000
    O5587   O    0.81403   0.40845   0.41325   1.000
    O5588   O    0.06240   0.69714   0.41277   1.000
    O5589   O    0.30889   0.08196   0.41131   1.000
    O5590   O    0.31629   0.09691   0.41406   1.000
    O5591   O    0.51995   0.11132   0.41823   1.000
    O5592   O    0.06981   0.30420   0.41257   1.000
    O5593   O    0.11147   0.52225   0.41856   1.000
    O5594   O    0.88843   0.52212   0.41853   1.000
    O5595   O    0.19693   0.56176   0.41301   1.000
    O5596   O    0.92358   0.69299   0.41271   1.000
    O5597   O    0.90800   0.68652   0.41383   1.000
    O5598   O    0.02321   0.38842   0.41849   1.000
    O5599   O    0.52258   0.88942   0.41858   1.000
    O5600   O    0.88792   0.47900   0.41860   1.000
    O5601   O    0.47689   0.11110   0.41852   1.000
    O5602   O    0.47956   0.88906   0.41859   1.000
    O5603   O    0.97991   0.38854   0.41871   1.000
    O5604   O    0.43081   0.19500   0.41320   1.000
    O5605   O    0.66119   0.92859   0.42100   1.000
    O5606   O    0.81049   0.58327   0.41238   1.000
    O5607   O    0.81809   0.59822   0.41453   1.000
    O5608   O    0.61149   0.02335   0.41900   1.000
    O5609   O    0.19204   0.57610   0.41335   1.000
    O5610   O    0.18530   0.59160   0.41441   1.000
    O5611   O    0.08391   0.30998   0.41297   1.000
    O5612   O    0.09889   0.31773   0.41430   1.000
    O5613   O    0.61177   0.98026   0.41942   1.000
    O5614   O    0.68912   0.08332   0.41287   1.000
    O5615   O    0.68182   0.09842   0.41520   1.000
    O5616   O    0.31692   0.06756   0.41584   1.000
    O5617   O    0.58087   0.18905   0.41268   1.000
    O5618   O    0.59581   0.18147   0.41526   1.000
    O5619   O    0.31818   0.93164   0.41614   1.000
    O5620   O    0.07675   0.69238   0.41357   1.000
    O5621   O    0.09228   0.68578   0.41508   1.000
    O5622   O    0.97812   0.61284   0.41986   1.000
    O5623   O    0.02112   0.61268   0.42024   1.000
    O5624   O    0.41676   0.18924   0.41404   1.000
    O5625   O    0.40175   0.18167   0.41594   1.000
    O5626   O    0.56990   0.80513   0.41467   1.000
    O5627   O    0.81632   0.43740   0.41753   1.000
    O5628   O    0.81845   0.56892   0.41715   1.000
    O5629   O    0.56648   0.18112   0.41715   1.000
    O5630   O    0.13760   0.45586   0.41972   1.000
    O5631   O    0.82120   0.39509   0.41500   1.000
    O5632   O    0.89463   0.67938   0.41528   1.000
    O5633   O    0.68110   0.06915   0.41794   1.000
    O5634   O    0.36138   0.04512   0.42061   1.000
    O5635   O    0.58388   0.81115   0.41528   1.000
    O5636   O    0.59874   0.81908   0.41687   1.000
    O5637   O    0.06972   0.31801   0.41803   1.000
    O5638   O    0.17788   0.60489   0.41586   1.000
    O5639   O    0.93682   0.68428   0.41906   1.000
    O5640   O    0.36233   0.95370   0.42105   1.000
    O5641   O    0.06333   0.68372   0.41939   1.000
    O5642   O    0.43100   0.18121   0.41892   1.000
    O5643   O    0.18351   0.56272   0.41951   1.000
    O5644   O    0.11159   0.32576   0.41604   1.000
    O5645   O    0.45635   0.86323   0.42130   1.000
    O5646   O    0.54414   0.13661   0.42158   1.000
    O5647   O    0.86296   0.54644   0.42166   1.000
    O5648   O    0.95612   0.36311   0.42147   1.000
    O5649   O    0.04739   0.36277   0.42169   1.000
    O5650   O    0.10558   0.67855   0.41680   1.000
    O5651   O    0.69161   0.91382   0.42521   1.000
    O5652   O    0.32537   0.88958   0.41622   1.000
    O5653   O    0.54678   0.86392   0.42236   1.000
    O5654   O    0.86139   0.45624   0.42231   1.000
    O5655   O    0.82926   0.40625   0.42065   1.000
    O5656   O    0.45303   0.13666   0.42249   1.000
    O5657   O    0.56948   0.81908   0.41984   1.000
    O5658   O    0.63685   0.04749   0.42262   1.000
    O5659   O    0.82592   0.61091   0.41702   1.000
    O5660   O    0.32395   0.10959   0.41708   1.000
    O5661   O    0.90567   0.67137   0.42135   1.000
    O5662   O    0.33303   0.90154   0.42086   1.000
    O5663   O    0.09966   0.33345   0.42076   1.000
    O5664   O    0.13824   0.54421   0.42330   1.000
    O5665   O    0.17007   0.59374   0.42171   1.000
    O5666   O    0.67428   0.11126   0.41790   1.000
    O5667   O    0.33167   0.09747   0.42134   1.000
    O5668   O    0.38900   0.17388   0.41820   1.000
    O5669   O    0.83361   0.59883   0.42149   1.000
    O5670   O    0.95540   0.63923   0.42377   1.000
    O5671   O    0.60848   0.17367   0.41811   1.000
    O5672   O    0.63817   0.95735   0.42391   1.000
    O5673   O    0.04409   0.63888   0.42408   1.000
    O5674   O    0.09438   0.67053   0.42244   1.000
    O5675   O    0.61132   0.82722   0.41879   1.000
    O5676   O    0.66654   0.09936   0.42263   1.000
    O5677   O    0.59637   0.16601   0.42233   1.000
    O5678   O    0.40098   0.16610   0.42274   1.000
    O5679   O    0.59921   0.83489   0.42306   1.000
    O5680   O    0.32465   0.05544   0.42026   1.000
    O5681   O    0.33231   0.06814   0.42313   1.000
    O5682   O    0.32585   0.94360   0.42092   1.000
    O5683   O    0.33354   0.93078   0.42346   1.000
    O5684   O    0.55436   0.17345   0.42154   1.000
    O5685   O    0.56707   0.16565   0.42425   1.000
    O5686   O    0.82616   0.55686   0.42175   1.000
    O5687   O    0.83397   0.56957   0.42412   1.000
    O5688   O    0.41316   0.00873   0.42638   1.000
    O5689   O    0.41347   0.99047   0.42649   1.000
    O5690   O    0.50762   0.08516   0.42683   1.000
    O5691   O    0.48936   0.08503   0.42694   1.000
    O5692   O    0.08587   0.49156   0.42666   1.000
    O5693   O    0.08564   0.50979   0.42720   1.000
    O5694   O    0.05781   0.32578   0.42281   1.000
    O5695   O    0.07056   0.33372   0.42448   1.000
    O5696   O    0.82465   0.44859   0.42295   1.000
    O5697   O    0.83151   0.43521   0.42491   1.000
    O5698   O    0.67335   0.05726   0.42277   1.000
    O5699   O    0.66578   0.07012   0.42530   1.000
    O5700   O    0.50962   0.91526   0.42754   1.000
    O5701   O    0.49135   0.91513   0.42757   1.000
    O5702   O    0.01077   0.41432   0.42767   1.000
    O5703   O    0.99240   0.41437   0.42778   1.000
    O5704   O    0.58556   0.01077   0.42782   1.000
    O5705   O    0.58566   0.99251   0.42801   1.000
    O5706   O    0.44298   0.17342   0.42358   1.000
    O5707   O    0.43020   0.16562   0.42568   1.000
    O5708   O    0.91394   0.49102   0.42792   1.000
    O5709   O    0.91412   0.50931   0.42794   1.000
    O5710   O    0.55737   0.82679   0.42421   1.000
    O5711   O    0.57000   0.83488   0.42601   1.000
    O5712   O    0.94789   0.67597   0.42486   1.000
    O5713   O    0.93450   0.66913   0.42649   1.000
    O5714   O    0.05208   0.67546   0.42480   1.000
    O5715   O    0.06541   0.66849   0.42672   1.000
    O5716   O    0.99065   0.58679   0.42895   1.000
    O5717   O    0.00895   0.58669   0.42912   1.000
    O5718   O    0.17530   0.55152   0.42513   1.000
    O5719   O    0.16828   0.56485   0.42670   1.000
    O5720   O    0.15152   0.43249   0.42880   1.000
    O5721   O    0.16747   0.42503   0.42916   1.000
    O5722   O    0.08553   0.34141   0.42587   1.000
    O5723   O    0.09947   0.34726   0.42649   1.000
    O5724   O    0.10107   0.47917   0.42821   1.000
    O5725   O    0.11357   0.46815   0.42936   1.000
    O5726   O    0.34095   0.91573   0.42582   1.000
    O5727   O    0.34657   0.90170   0.42725   1.000
    O5728   O    0.39789   0.02095   0.42824   1.000
    O5729   O    0.38545   0.03193   0.42975   1.000
    O5730   O    0.83797   0.41963   0.42649   1.000
    O5731   O    0.84274   0.40526   0.42712   1.000
    O5732   O    0.19677   0.41223   0.42934   1.000
    O5733   O    0.18303   0.41808   0.42972   1.000
    O5734   O    0.39857   0.97794   0.42848   1.000
    O5735   O    0.38637   0.96673   0.42999   1.000
    O5736   O    0.33967   0.08310   0.42588   1.000
    O5737   O    0.34523   0.09708   0.42766   1.000
    O5738   O    0.43295   0.84954   0.43012   1.000
    O5739   O    0.42581   0.83349   0.43042   1.000
    O5740   O    0.84153   0.58453   0.42630   1.000
    O5741   O    0.84726   0.59848   0.42758   1.000
    O5742   O    0.93224   0.34997   0.43020   1.000
    O5743   O    0.92444   0.33423   0.43072   1.000
    O5744   O    0.51999   0.10025   0.42898   1.000
    O5745   O    0.53102   0.11262   0.43066   1.000
    O5746   O    0.13901   0.44470   0.42975   1.000
    O5747   O    0.12660   0.45647   0.42996   1.000
    O5748   O    0.91893   0.66268   0.42766   1.000
    O5749   O    0.90458   0.65792   0.42792   1.000
    O5750   O    0.02323   0.39922   0.42945   1.000
    O5751   O    0.03446   0.38694   0.43075   1.000
    O5752   O    0.47699   0.09999   0.42923   1.000
    O5753   O    0.46591   0.11228   0.43098   1.000
    O5754   O    0.47926   0.89992   0.42949   1.000
    O5755   O    0.46838   0.88738   0.43075   1.000
    O5756   O    0.58203   0.15811   0.42684   1.000
    O5757   O    0.59597   0.15238   0.42850   1.000
    O5758   O    0.89915   0.52191   0.42962   1.000
    O5759   O    0.88694   0.53321   0.43091   1.000
    O5760   O    0.52229   0.90028   0.42949   1.000
    O5761   O    0.53356   0.88807   0.43107   1.000
    O5762   O    0.16159   0.58036   0.42784   1.000
    O5763   O    0.15657   0.59464   0.42811   1.000
    O5764   O    0.89868   0.47883   0.42964   1.000
    O5765   O    0.88618   0.46794   0.43098   1.000
    O5766   O    0.10065   0.52202   0.42950   1.000
    O5767   O    0.11317   0.53283   0.43126   1.000
    O5768   O    0.97992   0.39935   0.42966   1.000
    O5769   O    0.96861   0.38713   0.43085   1.000
    O5770   O    0.41390   0.80390   0.43044   1.000
    O5771   O    0.41933   0.81778   0.43090   1.000
    O5772   O    0.34811   0.06854   0.43089   1.000
    O5773   O    0.60052   0.02326   0.42981   1.000
    O5774   O    0.61277   0.03440   0.43141   1.000
    O5775   O    0.41519   0.15809   0.42760   1.000
    O5776   O    0.40121   0.15237   0.42867   1.000
    O5777   O    0.58486   0.84276   0.42765   1.000
    O5778   O    0.59872   0.84878   0.42853   1.000
    O5779   O    0.65852   0.08523   0.42766   1.000
    O5780   O    0.65306   0.09930   0.42907   1.000
    O5781   O    0.34937   0.93012   0.43109   1.000
    O5782   O    0.08094   0.66190   0.42826   1.000
    O5783   O    0.09527   0.65701   0.42885   1.000
    O5784   O    0.91072   0.30541   0.43122   1.000
    O5785   O    0.91700   0.31893   0.43144   1.000
    O5786   O    0.60079   0.98025   0.43022   1.000
    O5787   O    0.61326   0.96932   0.43196   1.000
    O5788   O    0.37250   0.04380   0.43079   1.000
    O5789   O    0.36033   0.05583   0.43112   1.000
    O5790   O    0.07122   0.34978   0.43147   1.000
    O5791   O    0.84986   0.57005   0.43163   1.000
    O5792   O    0.37357   0.95483   0.43108   1.000
    O5793   O    0.36150   0.94278   0.43140   1.000
    O5794   O    0.97819   0.60193   0.43077   1.000
    O5795   O    0.96715   0.61436   0.43222   1.000
    O5796   O    0.44510   0.86198   0.43117   1.000
    O5797   O    0.45684   0.87433   0.43142   1.000
    O5798   O    0.94472   0.36218   0.43122   1.000
    O5799   O    0.95673   0.37432   0.43149   1.000
    O5800   O    0.56750   0.14982   0.43191   1.000
    O5801   O    0.02123   0.60174   0.43113   1.000
    O5802   O    0.03225   0.61412   0.43257   1.000
    O5803   O    0.04640   0.37403   0.43168   1.000
    O5804   O    0.05851   0.36195   0.43184   1.000
    O5805   O    0.84738   0.43327   0.43219   1.000
    O5806   O    0.54288   0.12549   0.43176   1.000
    O5807   O    0.55485   0.13766   0.43212   1.000
    O5808   O    0.87409   0.54520   0.43182   1.000
    O5809   O    0.86200   0.55731   0.43200   1.000
    O5810   O    0.87286   0.45662   0.43211   1.000
    O5811   O    0.86023   0.44515   0.43246   1.000
    O5812   O    0.64995   0.07086   0.43287   1.000
    O5813   O    0.42957   0.14960   0.43281   1.000
    O5814   O    0.54552   0.87522   0.43230   1.000
    O5815   O    0.55761   0.86314   0.43281   1.000
    O5816   O    0.57036   0.85102   0.43283   1.000
    O5817   O    0.45413   0.12520   0.43232   1.000
    O5818   O    0.44218   0.13739   0.43287   1.000
    O5819   O    0.62561   0.04628   0.43259   1.000
    O5820   O    0.63773   0.05830   0.43304   1.000
    O5821   O    0.93249   0.65320   0.43361   1.000
    O5822   O    0.12661   0.54384   0.43287   1.000
    O5823   O    0.13943   0.55503   0.43363   1.000
    O5824   O    0.15234   0.56674   0.43365   1.000
    O5825   O    0.06723   0.65257   0.43391   1.000
    O5826   O    0.95580   0.62765   0.43345   1.000
    O5827   O    0.94433   0.64032   0.43387   1.000
    O5828   O    0.62652   0.95792   0.43347   1.000
    O5829   O    0.63921   0.94650   0.43432   1.000
    O5830   O    0.04368   0.62731   0.43377   1.000
    O5831   O    0.05524   0.63985   0.43416   1.000
    O5832   O    0.65202   0.93449   0.43464   1.000
    O5833   O    0.66793   0.92735   0.43647   1.000
    O5834   O    0.13955   0.43263   0.44167   1.000
    O5835   O    0.11484   0.45611   0.44207   1.000
    O5836   O    0.17534   0.42237   0.44183   1.000
    O5837   O    0.38460   0.04360   0.44269   1.000
    O5838   O    0.38582   0.95481   0.44280   1.000
    O5839   O    0.68313   0.91999   0.43857   1.000
    O5840   O    0.69653   0.91333   0.43951   1.000
    O5841   O    0.93236   0.36219   0.44277   1.000
    O5842   O    0.43290   0.86161   0.44289   1.000
    O5843   O    0.36037   0.06751   0.44335   1.000
    O5844   O    0.45632   0.88624   0.44336   1.000
    O5845   O    0.95628   0.38639   0.44331   1.000
    O5846   O    0.36178   0.93082   0.44342   1.000
    O5847   O    0.04656   0.38627   0.44337   1.000
    O5848   O    0.42343   0.82552   0.44305   1.000
    O5849   O    0.54277   0.11339   0.44368   1.000
    O5850   O    0.88619   0.54510   0.44371   1.000
    O5851   O    0.88530   0.45582   0.44357   1.000
    O5852   O    0.07067   0.36223   0.44365   1.000
    O5853   O    0.45408   0.11272   0.44382   1.000
    O5854   O    0.92151   0.32663   0.44347   1.000
    O5855   O    0.54537   0.88747   0.44398   1.000
    O5856   O    0.86211   0.56917   0.44406   1.000
    O5857   O    0.56652   0.13767   0.44440   1.000
    O5858   O    0.61337   0.04618   0.44427   1.000
    O5859   O    0.11403   0.54464   0.44412   1.000
    O5860   O    0.86022   0.43289   0.44421   1.000
    O5861   O    0.61398   0.95743   0.44481   1.000
    O5862   O    0.56943   0.86342   0.44495   1.000
    O5863   O    0.43031   0.13702   0.44489   1.000
    O5864   O    0.95505   0.61509   0.44478   1.000
    O5865   O    0.63747   0.07013   0.44513   1.000
    O5866   O    0.04447   0.61472   0.44509   1.000
    O5867   O    0.13954   0.56701   0.44557   1.000
    O5868   O    0.93209   0.64025   0.44556   1.000
    O5869   O    0.06756   0.63965   0.44582   1.000
    O5870   O    0.63925   0.93468   0.44648   1.000
    O5871   O    0.67498   0.92566   0.44976   1.000
    O5872   O    0.13894   0.42226   0.45261   1.000
    O5873   O    0.12768   0.43227   0.45394   1.000
    O5874   O    0.10485   0.45477   0.45320   1.000
    O5875   O    0.11538   0.44398   0.45413   1.000
    O5876   O    0.92174   0.36327   0.45336   1.000
    O5877   O    0.93189   0.37436   0.45472   1.000
    O5878   O    0.39631   0.95372   0.45360   1.000
    O5879   O    0.38611   0.94274   0.45492   1.000
    O5880   O    0.39493   0.04450   0.45366   1.000
    O5881   O    0.38462   0.05540   0.45500   1.000
    O5882   O    0.42241   0.86235   0.45366   1.000
    O5883   O    0.43238   0.87362   0.45500   1.000
    O5884   O    0.95478   0.39671   0.45415   1.000
    O5885   O    0.94379   0.38642   0.45499   1.000
    O5886   O    0.04778   0.39673   0.45413   1.000
    O5887   O    0.05881   0.38651   0.45528   1.000
    O5888   O    0.45484   0.89639   0.45431   1.000
    O5889   O    0.44405   0.88589   0.45522   1.000
    O5890   O    0.36299   0.92070   0.45452   1.000
    O5891   O    0.37414   0.93080   0.45522   1.000
    O5892   O    0.89589   0.45410   0.45414   1.000
    O5893   O    0.88528   0.44351   0.45545   1.000
    O5894   O    0.36135   0.07737   0.45464   1.000
    O5895   O    0.37256   0.06729   0.45533   1.000
    O5896   O    0.08097   0.36342   0.45455   1.000
    O5897   O    0.07082   0.37455   0.45541   1.000
    O5898   O    0.45295   0.10202   0.45443   1.000
    O5899   O    0.44209   0.11236   0.45594   1.000
    O5900   O    0.89653   0.54609   0.45467   1.000
    O5901   O    0.88627   0.55709   0.45587   1.000
    O5902   O    0.54377   0.10304   0.45467   1.000
    O5903   O    0.55460   0.11341   0.45606   1.000
    O5904   O    0.10333   0.54634   0.45454   1.000
    O5905   O    0.11417   0.55667   0.45622   1.000
    O5906   O    0.86125   0.42241   0.45503   1.000
    O5907   O    0.87283   0.43205   0.45574   1.000
    O5908   O    0.54631   0.89794   0.45476   1.000
    O5909   O    0.55730   0.88771   0.45622   1.000
    O5910   O    0.86312   0.57918   0.45521   1.000
    O5911   O    0.87428   0.56906   0.45605   1.000
    O5912   O    0.60292   0.04714   0.45505   1.000
    O5913   O    0.61313   0.05810   0.45649   1.000
    O5914   O    0.57636   0.13678   0.45573   1.000
    O5915   O    0.56638   0.12553   0.45641   1.000
    O5916   O    0.95339   0.60440   0.45524   1.000
    O5917   O    0.94278   0.61504   0.45662   1.000
    O5918   O    0.60326   0.95591   0.45529   1.000
    O5919   O    0.61399   0.94544   0.45703   1.000
    O5920   O    0.42026   0.13576   0.45596   1.000
    O5921   O    0.43027   0.12447   0.45646   1.000
    O5922   O    0.04621   0.60397   0.45553   1.000
    O5923   O    0.05687   0.61452   0.45688   1.000
    O5924   O    0.57941   0.86458   0.45614   1.000
    O5925   O    0.56926   0.87573   0.45669   1.000
    O5926   O    0.63625   0.08015   0.45628   1.000
    O5927   O    0.62510   0.07003   0.45690   1.000
    O5928   O    0.92160   0.63914   0.45631   1.000
    O5929   O    0.93129   0.62753   0.45698   1.000
    O5930   O    0.13863   0.57729   0.45650   1.000
    O5931   O    0.12685   0.56786   0.45691   1.000
    O5932   O    0.07807   0.63846   0.45656   1.000
    O5933   O    0.06839   0.62692   0.45721   1.000
    O5934   O    0.63818   0.92446   0.45748   1.000
    O5935   O    0.62657   0.93412   0.45784   1.000
    O5936   O    0.11505   0.43120   0.46610   1.000
    O5937   O    0.93069   0.38718   0.46662   1.000
    O5938   O    0.38716   0.92997   0.46689   1.000
    O5939   O    0.43116   0.88645   0.46694   1.000
    O5940   O    0.38545   0.06796   0.46715   1.000
    O5941   O    0.07175   0.38752   0.46704   1.000
    O5942   O    0.88608   0.43060   0.46724   1.000
    O5943   O    0.88711   0.56980   0.46791   1.000
    O5944   O    0.42933   0.11128   0.46787   1.000
    O5945   O    0.56724   0.11275   0.46827   1.000
    O5946   O    0.56993   0.88866   0.46832   1.000
    O5947   O    0.11362   0.56934   0.46826   1.000
    O5948   O    0.61205   0.07068   0.46857   1.000
    O5949   O    0.92998   0.61421   0.46842   1.000
    O5950   O    0.06984   0.61361   0.46860   1.000
    O5951   O    0.61327   0.93268   0.46904   1.000
    O5952   O    0.11397   0.41886   0.47735   1.000
    O5953   O    0.10299   0.42972   0.47744   1.000
    O5954   O    0.91821   0.38846   0.47763   1.000
    O5955   O    0.92895   0.39949   0.47769   1.000
    O5956   O    0.39960   0.92861   0.47792   1.000
    O5957   O    0.38879   0.91764   0.47799   1.000
    O5958   O    0.41873   0.88775   0.47801   1.000
    O5959   O    0.42953   0.89872   0.47803   1.000
    O5960   O    0.07324   0.39996   0.47797   1.000
    O5961   O    0.08419   0.38908   0.47800   1.000
    O5962   O    0.88773   0.41801   0.47814   1.000
    O5963   O    0.89853   0.42899   0.47817   1.000
    O5964   O    0.39779   0.06921   0.47834   1.000
    O5965   O    0.38685   0.08011   0.47836   1.000
    O5966   O    0.41693   0.10962   0.47876   1.000
    O5967   O    0.42791   0.09876   0.47879   1.000
    O5968   O    0.89943   0.57113   0.47903   1.000
    O5969   O    0.88848   0.58201   0.47914   1.000
    O5970   O    0.11220   0.58179   0.47923   1.000
    O5971   O    0.10128   0.57093   0.47926   1.000
    O5972   O    0.92848   0.60167   0.47928   1.000
    O5973   O    0.91756   0.61258   0.47942   1.000
    O5974   O    0.57110   0.90095   0.47943   1.000
    O5975   O    0.58218   0.89020   0.47947   1.000
    O5976   O    0.56880   0.10044   0.47946   1.000
    O5977   O    0.57942   0.11160   0.47957   1.000
    O5978   O    0.08242   0.61200   0.47945   1.000
    O5979   O    0.07155   0.60108   0.47946   1.000
    O5980   O    0.59966   0.07173   0.47963   1.000
    O5981   O    0.61028   0.08289   0.47974   1.000
    O5982   O    0.60075   0.93092   0.47986   1.000
    O5983   O    0.61184   0.92017   0.47995   1.000
    O5984   O    0.11220   0.40390   0.48991   1.000
    O5985   O    0.08805   0.42779   0.49000   1.000
    O5986   O    0.90316   0.39014   0.49012   1.000
    O5987   O    0.92679   0.41442   0.49018   1.000
    O5988   O    0.41472   0.92670   0.49028   1.000
    O5989   O    0.07527   0.41505   0.49018   1.000
    O5990   O    0.09939   0.39113   0.49021   1.000
    O5991   O    0.40373   0.88974   0.49039   1.000
    O5992   O    0.39091   0.90258   0.49040   1.000
    O5993   O    0.42752   0.91387   0.49035   1.000
    O5994   O    0.89008   0.40281   0.49036   1.000
    O5995   O    0.91376   0.42703   0.49039   1.000
    O5996   O    0.41288   0.07100   0.49084   1.000
    O5997   O    0.38880   0.09498   0.49080   1.000
    O5998   O    0.40171   0.10760   0.49094   1.000
    O5999   O    0.42583   0.08367   0.49103   1.000
    O6000   O    0.91438   0.57314   0.49138   1.000
    O6001   O    0.92678   0.58627   0.49147   1.000
    O6002   O    0.11033   0.59689   0.49162   1.000
    O6003   O    0.89027   0.59706   0.49170   1.000
    O6004   O    0.08633   0.57295   0.49164   1.000
    O6005   O    0.09756   0.60986   0.49172   1.000
    O6006   O    0.07362   0.58586   0.49171   1.000
    O6007   O    0.57286   0.91581   0.49186   1.000
    O6008   O    0.57120   0.08552   0.49187   1.000
    O6009   O    0.90271   0.61022   0.49182   1.000
    O6010   O    0.59724   0.89213   0.49195   1.000
    O6011   O    0.58447   0.07321   0.49194   1.000
    O6012   O    0.59453   0.11009   0.49209   1.000
    O6013   O    0.58558   0.92863   0.49202   1.000
    O6014   O    0.60780   0.09779   0.49215   1.000
    O6015   O    0.60997   0.90497   0.49216   1.000
    O6016   O    0.11230   0.40408   0.50823   1.000
    O6017   O    0.09960   0.39114   0.50846   1.000
    O6018   O    0.08813   0.42794   0.50829   1.000
    O6019   O    0.07545   0.41504   0.50839   1.000
    O6020   O    0.90342   0.38997   0.50841   1.000
    O6021   O    0.89025   0.40252   0.50871   1.000
    O6022   O    0.92701   0.41429   0.50840   1.000
    O6023   O    0.91389   0.42678   0.50865   1.000
    O6024   O    0.41476   0.92673   0.50853   1.000
    O6025   O    0.42768   0.91403   0.50862   1.000
    O6026   O    0.39092   0.90265   0.50865   1.000
    O6027   O    0.40386   0.88993   0.50869   1.000
    O6028   O    0.38887   0.09475   0.50903   1.000
    O6029   O    0.40147   0.10763   0.50911   1.000
    O6030   O    0.41295   0.07077   0.50916   1.000
    O6031   O    0.42558   0.08369   0.50931   1.000
    O6032   O    0.91430   0.57310   0.50965   1.000
    O6033   O    0.92713   0.58583   0.50967   1.000
    O6034   O    0.08653   0.57292   0.50987   1.000
    O6035   O    0.07369   0.58568   0.50991   1.000
    O6036   O    0.11050   0.59688   0.50990   1.000
    O6037   O    0.09760   0.60970   0.50999   1.000
    O6038   O    0.89016   0.59698   0.51001   1.000
    O6039   O    0.90304   0.60978   0.51008   1.000
    O6040   O    0.57297   0.91541   0.51009   1.000
    O6041   O    0.58542   0.92852   0.51023   1.000
    O6042   O    0.57115   0.08556   0.51016   1.000
    O6043   O    0.58445   0.07317   0.51020   1.000
    O6044   O    0.59732   0.89171   0.51017   1.000
    O6045   O    0.60979   0.90482   0.51037   1.000
    O6046   O    0.59449   0.11013   0.51036   1.000
    O6047   O    0.60780   0.09773   0.51041   1.000
    O6048   O    0.11424   0.41922   0.52049   1.000
    O6049   O    0.10324   0.43004   0.52055   1.000
    O6050   O    0.92947   0.39916   0.52058   1.000
    O6051   O    0.91876   0.38809   0.52059   1.000
    O6052   O    0.07363   0.39996   0.52083   1.000
    O6053   O    0.39971   0.92871   0.52087   1.000
    O6054   O    0.08460   0.38910   0.52091   1.000
    O6055   O    0.38886   0.91778   0.52093   1.000
    O6056   O    0.42982   0.89906   0.52107   1.000
    O6057   O    0.41899   0.88811   0.52108   1.000
    O6058   O    0.89889   0.42838   0.52122   1.000
    O6059   O    0.88812   0.41737   0.52128   1.000
    O6060   O    0.38699   0.07963   0.52139   1.000
    O6061   O    0.39792   0.06872   0.52145   1.000
    O6062   O    0.41638   0.10963   0.52158   1.000
    O6063   O    0.42736   0.09877   0.52171   1.000
    O6064   O    0.89928   0.57092   0.52206   1.000
    O6065   O    0.92923   0.60071   0.52211   1.000
    O6066   O    0.10170   0.57085   0.52216   1.000
    O6067   O    0.11260   0.58173   0.52219   1.000
    O6068   O    0.07169   0.60068   0.52229   1.000
    O6069   O    0.88829   0.58176   0.52223   1.000
    O6070   O    0.57125   0.90007   0.52233   1.000
    O6071   O    0.08254   0.61162   0.52236   1.000
    O6072   O    0.58230   0.88930   0.52236   1.000
    O6073   O    0.91830   0.61162   0.52233   1.000
    O6074   O    0.56864   0.10054   0.52251   1.000
    O6075   O    0.59963   0.07157   0.52261   1.000
    O6076   O    0.60035   0.93062   0.52268   1.000
    O6077   O    0.57925   0.11169   0.52261   1.000
    O6078   O    0.61026   0.08271   0.52271   1.000
    O6079   O    0.61142   0.91985   0.52277   1.000
    O6080   O    0.11567   0.43154   0.53154   1.000
    O6081   O    0.93141   0.38664   0.53141   1.000
    O6082   O    0.07214   0.38760   0.53190   1.000
    O6083   O    0.38731   0.93028   0.53184   1.000
    O6084   O    0.43129   0.88673   0.53224   1.000
    O6085   O    0.88672   0.42968   0.53249   1.000
    O6086   O    0.38564   0.06739   0.53258   1.000
    O6087   O    0.42856   0.11119   0.53276   1.000
    O6088   O    0.88694   0.56913   0.53306   1.000
    O6089   O    0.11417   0.56919   0.53311   1.000
    O6090   O    0.93095   0.61299   0.53315   1.000
    O6091   O    0.56985   0.88758   0.53326   1.000
    O6092   O    0.07001   0.61299   0.53328   1.000
    O6093   O    0.56671   0.11293   0.53347   1.000
    O6094   O    0.61204   0.07019   0.53362   1.000
    O6095   O    0.61261   0.93222   0.53379   1.000
    O6096   O    0.93305   0.37338   0.54277   1.000
    O6097   O    0.94449   0.38585   0.54308   1.000
    O6098   O    0.12891   0.43278   0.54292   1.000
    O6099   O    0.11624   0.44400   0.54378   1.000
    O6100   O    0.37396   0.93174   0.54307   1.000
    O6101   O    0.38662   0.94296   0.54388   1.000
    O6102   O    0.05916   0.38674   0.54358   1.000
    O6103   O    0.07108   0.37462   0.54372   1.000
    O6104   O    0.14056   0.42318   0.54326   1.000
    O6105   O    0.43219   0.87385   0.54403   1.000
    O6106   O    0.44400   0.88594   0.54431   1.000
    O6107   O    0.36220   0.92228   0.54339   1.000
    O6108   O    0.88614   0.44239   0.54445   1.000
    O6109   O    0.87393   0.43063   0.54453   1.000
    O6110   O    0.37281   0.06660   0.54435   1.000
    O6111   O    0.38498   0.05483   0.54476   1.000
    O6112   O    0.92342   0.36178   0.54350   1.000
    O6113   O    0.42927   0.12429   0.54423   1.000
    O6114   O    0.44109   0.11218   0.54502   1.000
    O6115   O    0.87372   0.56749   0.54442   1.000
    O6116   O    0.88633   0.55616   0.54487   1.000
    O6117   O    0.12748   0.56771   0.54444   1.000
    O6118   O    0.11495   0.55636   0.54501   1.000
    O6119   O    0.93260   0.62616   0.54460   1.000
    O6120   O    0.94387   0.61347   0.54491   1.000
    O6121   O    0.56881   0.87441   0.54483   1.000
    O6122   O    0.55703   0.88662   0.54503   1.000
    O6123   O    0.06841   0.62617   0.54473   1.000
    O6124   O    0.05720   0.61348   0.54509   1.000
    O6125   O    0.41926   0.13558   0.54448   1.000
    O6126   O    0.56509   0.12612   0.54483   1.000
    O6127   O    0.55381   0.11351   0.54534   1.000
    O6128   O    0.62545   0.06876   0.54494   1.000
    O6129   O    0.61278   0.05754   0.54564   1.000
    O6130   O    0.42219   0.86261   0.54477   1.000
    O6131   O    0.62548   0.93339   0.54561   1.000
    O6132   O    0.61310   0.94500   0.54563   1.000
    O6133   O    0.04817   0.39707   0.54455   1.000
    O6134   O    0.13914   0.57725   0.54488   1.000
    O6135   O    0.95506   0.39651   0.54443   1.000
    O6136   O    0.36151   0.07658   0.54499   1.000
    O6137   O    0.63723   0.07818   0.54527   1.000
    O6138   O    0.86201   0.57706   0.54508   1.000
    O6139   O    0.08126   0.36347   0.54499   1.000
    O6140   O    0.57459   0.13783   0.54541   1.000
    O6141   O    0.92310   0.63791   0.54534   1.000
    O6142   O    0.07784   0.63794   0.54542   1.000
    O6143   O    0.89657   0.45324   0.54549   1.000
    O6144   O    0.45485   0.89628   0.54563   1.000
    O6145   O    0.57889   0.86315   0.54577   1.000
    O6146   O    0.86269   0.42060   0.54575   1.000
    O6147   O    0.10543   0.45435   0.54557   1.000
    O6148   O    0.39744   0.95332   0.54567   1.000
    O6149   O    0.39540   0.04402   0.54619   1.000
    O6150   O    0.54617   0.89703   0.54628   1.000
    O6151   O    0.95430   0.60261   0.54627   1.000
    O6152   O    0.89712   0.54570   0.54635   1.000
    O6153   O    0.60249   0.95570   0.54672   1.000
    O6154   O    0.04684   0.60263   0.54649   1.000
    O6155   O    0.63685   0.92346   0.54672   1.000
    O6156   O    0.10428   0.54585   0.54655   1.000
    O6157   O    0.17728   0.42444   0.55139   1.000
    O6158   O    0.45195   0.10187   0.54676   1.000
    O6159   O    0.54339   0.10274   0.54686   1.000
    O6160   O    0.60200   0.04718   0.54730   1.000
    O6161   O    0.14147   0.43312   0.55449   1.000
    O6162   O    0.93400   0.36066   0.55416   1.000
    O6163   O    0.36113   0.93261   0.55424   1.000
    O6164   O    0.95693   0.38574   0.55484   1.000
    O6165   O    0.08117   0.32653   0.55501   1.000
    O6166   O    0.04678   0.38666   0.55535   1.000
    O6167   O    0.57850   0.82614   0.55507   1.000
    O6168   O    0.07070   0.36236   0.55563   1.000
    O6169   O    0.42909   0.13680   0.55579   1.000
    O6170   O    0.43219   0.86163   0.55598   1.000
    O6171   O    0.14022   0.56691   0.55580   1.000
    O6172   O    0.86095   0.56637   0.55562   1.000
    O6173   O    0.38658   0.95503   0.55595   1.000
    O6174   O    0.36070   0.06672   0.55634   1.000
    O6175   O    0.11600   0.45564   0.55625   1.000
    O6176   O    0.93373   0.63877   0.55599   1.000
    O6177   O    0.06730   0.63880   0.55612   1.000
    O6178   O    0.88644   0.45449   0.55651   1.000
    O6179   O    0.56419   0.13881   0.55619   1.000
    O6180   O    0.63826   0.06785   0.55624   1.000
    O6181   O    0.45594   0.88589   0.55656   1.000
    O6182   O    0.86195   0.43090   0.55669   1.000
    O6183   O    0.56850   0.86199   0.55658   1.000
    O6184   O    0.95622   0.61323   0.55672   1.000
    O6185   O    0.88632   0.54373   0.55666   1.000
    O6186   O    0.38514   0.04306   0.55717   1.000
    O6187   O    0.54487   0.88651   0.55697   1.000
    O6188   O    0.82559   0.42196   0.55662   1.000
    O6189   O    0.04493   0.61325   0.55694   1.000
    O6190   O    0.11503   0.54414   0.55699   1.000
    O6191   O    0.67355   0.92430   0.55685   1.000
    O6192   O    0.45288   0.11250   0.55741   1.000
    O6193   O    0.54158   0.11347   0.55727   1.000
    O6194   O    0.63763   0.93381   0.55758   1.000
    O6195   O    0.61279   0.95708   0.55762   1.000
    O6196   O    0.61274   0.04545   0.55771   1.000
    O6197   O    0.19890   0.41205   0.56157   1.000
    O6198   O    0.18545   0.41858   0.56253   1.000
    O6199   O    0.17017   0.42577   0.56465   1.000
    O6200   O    0.94637   0.36051   0.56575   1.000
    O6201   O    0.93439   0.34781   0.56610   1.000
    O6202   O    0.34815   0.93299   0.56599   1.000
    O6203   O    0.36105   0.94465   0.56611   1.000
    O6204   O    0.58894   0.80433   0.56678   1.000
    O6205   O    0.15416   0.43273   0.56648   1.000
    O6206   O    0.14121   0.44460   0.56690   1.000
    O6207   O    0.08552   0.31870   0.56708   1.000
    O6208   O    0.07845   0.33419   0.56773   1.000
    O6209   O    0.95785   0.37312   0.56612   1.000
    O6210   O    0.96916   0.38640   0.56740   1.000
    O6211   O    0.58309   0.81807   0.56688   1.000
    O6212   O    0.57615   0.83358   0.56799   1.000
    O6213   O    0.09145   0.30500   0.56738   1.000
    O6214   O    0.86084   0.55393   0.56716   1.000
    O6215   O    0.84791   0.56567   0.56717   1.000
    O6216   O    0.04642   0.37448   0.56711   1.000
    O6217   O    0.03455   0.38729   0.56787   1.000
    O6218   O    0.05841   0.36230   0.56726   1.000
    O6219   O    0.07084   0.35005   0.56822   1.000
    O6220   O    0.15318   0.56662   0.56763   1.000
    O6221   O    0.14030   0.55479   0.56767   1.000
    O6222   O    0.94607   0.63859   0.56761   1.000
    O6223   O    0.93439   0.65152   0.56799   1.000
    O6224   O    0.37384   0.95585   0.56702   1.000
    O6225   O    0.38719   0.96692   0.56881   1.000
    O6226   O    0.42817   0.14944   0.56774   1.000
    O6227   O    0.44073   0.13713   0.56809   1.000
    O6228   O    0.05504   0.63862   0.56778   1.000
    O6229   O    0.06663   0.65160   0.56807   1.000
    O6230   O    0.55204   0.13880   0.56794   1.000
    O6231   O    0.56390   0.15159   0.56812   1.000
    O6232   O    0.65134   0.06733   0.56803   1.000
    O6233   O    0.63823   0.05579   0.56818   1.000
    O6234   O    0.44401   0.86156   0.56812   1.000
    O6235   O    0.43141   0.84938   0.56842   1.000
    O6236   O    0.81791   0.41765   0.56876   1.000
    O6237   O    0.83376   0.42380   0.56920   1.000
    O6238   O    0.12841   0.45591   0.56780   1.000
    O6239   O    0.11506   0.46724   0.56927   1.000
    O6240   O    0.87360   0.54261   0.56774   1.000
    O6241   O    0.88707   0.53146   0.56917   1.000
    O6242   O    0.68128   0.91955   0.56881   1.000
    O6243   O    0.66574   0.92640   0.56959   1.000
    O6244   O    0.36084   0.05507   0.56865   1.000
    O6245   O    0.34857   0.06762   0.56884   1.000
    O6246   O    0.55642   0.86190   0.56841   1.000
    O6247   O    0.56873   0.84949   0.56893   1.000
    O6248   O    0.95730   0.62574   0.56802   1.000
    O6249   O    0.96837   0.61225   0.56930   1.000
    O6250   O    0.87456   0.45473   0.56850   1.000
    O6251   O    0.88747   0.46643   0.56926   1.000
    O6252   O    0.45596   0.87374   0.56841   1.000
    O6253   O    0.46774   0.88667   0.56949   1.000
    O6254   O    0.04387   0.62576   0.56824   1.000
    O6255   O    0.03285   0.61228   0.56951   1.000
    O6256   O    0.86228   0.44290   0.56861   1.000
    O6257   O    0.84990   0.43071   0.56952   1.000
    O6258   O    0.69503   0.91373   0.56901   1.000
    O6259   O    0.12763   0.54337   0.56829   1.000
    O6260   O    0.11438   0.53201   0.56962   1.000
    O6261   O    0.54457   0.87421   0.56861   1.000
    O6262   O    0.53286   0.88715   0.56964   1.000
    O6263   O    0.54071   0.12607   0.56851   1.000
    O6264   O    0.52954   0.11274   0.56998   1.000
    O6265   O    0.80394   0.41253   0.56922   1.000
    O6266   O    0.37311   0.04317   0.56908   1.000
    O6267   O    0.38612   0.03143   0.57021   1.000
    O6268   O    0.45270   0.12493   0.56891   1.000
    O6269   O    0.46460   0.11207   0.57042   1.000
    O6270   O    0.62537   0.04460   0.56895   1.000
    O6271   O    0.61194   0.03349   0.57042   1.000
    O6272   O    0.63730   0.94581   0.56946   1.000
    O6273   O    0.64978   0.93363   0.57020   1.000
    O6274   O    0.62485   0.95748   0.56948   1.000
    O6275   O    0.61174   0.96897   0.57036   1.000
    O6276   O    0.98008   0.39889   0.56901   1.000
    O6277   O    0.99228   0.41408   0.57122   1.000
    O6278   O    0.02324   0.39951   0.56921   1.000
    O6279   O    0.01063   0.41434   0.57128   1.000
    O6280   O    0.19396   0.41218   0.57585   1.000
    O6281   O    0.89982   0.47752   0.57059   1.000
    O6282   O    0.91481   0.48991   0.57253   1.000
    O6283   O    0.89957   0.52051   0.57067   1.000
    O6284   O    0.91471   0.50819   0.57259   1.000
    O6285   O    0.97924   0.59967   0.57077   1.000
    O6286   O    0.99155   0.58453   0.57269   1.000
    O6287   O    0.02204   0.59972   0.57094   1.000
    O6288   O    0.00979   0.58455   0.57276   1.000
    O6289   O    0.10252   0.47808   0.57094   1.000
    O6290   O    0.08729   0.49032   0.57290   1.000
    O6291   O    0.39962   0.97781   0.57080   1.000
    O6292   O    0.41441   0.99018   0.57341   1.000
    O6293   O    0.10202   0.52099   0.57108   1.000
    O6294   O    0.08706   0.50856   0.57295   1.000
    O6295   O    0.47873   0.89906   0.57107   1.000
    O6296   O    0.49097   0.91421   0.57314   1.000
    O6297   O    0.52172   0.89945   0.57112   1.000
    O6298   O    0.50923   0.91440   0.57315   1.000
    O6299   O    0.59925   0.97991   0.57176   1.000
    O6300   O    0.58415   0.99218   0.57373   1.000
    O6301   O    0.82352   0.55087   0.57082   1.000
    O6302   O    0.39970   0.15263   0.57081   1.000
    O6303   O    0.51876   0.10018   0.57178   1.000
    O6304   O    0.50669   0.08509   0.57425   1.000
    O6305   O    0.39865   0.02058   0.57189   1.000
    O6306   O    0.41394   0.00838   0.57389   1.000
    O6307   O    0.59940   0.02268   0.57200   1.000
    O6308   O    0.58420   0.01039   0.57388   1.000
    O6309   O    0.47583   0.09989   0.57226   1.000
    O6310   O    0.48846   0.08500   0.57448   1.000
    O6311   O    0.95755   0.36149   0.57576   1.000
    O6312   O    0.34570   0.09608   0.57227   1.000
    O6313   O    0.15811   0.59470   0.57194   1.000
    O6314   O    0.40300   0.84666   0.57220   1.000
    O6315   O    0.33883   0.91946   0.57194   1.000
    O6316   O    0.33213   0.93499   0.57270   1.000
    O6317   O    0.90651   0.34390   0.57208   1.000
    O6318   O    0.34386   0.90518   0.57205   1.000
    O6319   O    0.36208   0.95551   0.57640   1.000
    O6320   O    0.92073   0.33871   0.57214   1.000
    O6321   O    0.93617   0.33180   0.57309   1.000
    O6322   O    0.65684   0.09529   0.57253   1.000
    O6323   O    0.16339   0.42661   0.58008   1.000
    O6324   O    0.04707   0.36316   0.57706   1.000
    O6325   O    0.86177   0.54267   0.57710   1.000
    O6326   O    0.83127   0.56378   0.57214   1.000
    O6327   O    0.83879   0.57881   0.57413   1.000
    O6328   O    0.58784   0.80968   0.58096   1.000
    O6329   O    0.13996   0.45517   0.57752   1.000
    O6330   O    0.95720   0.63731   0.57765   1.000
    O6331   O    0.08994   0.31058   0.58143   1.000
    O6332   O    0.16278   0.58030   0.57286   1.000
    O6333   O    0.16912   0.56471   0.57475   1.000
    O6334   O    0.41372   0.15815   0.57237   1.000
    O6335   O    0.42875   0.16549   0.57478   1.000
    O6336   O    0.04398   0.63733   0.57787   1.000
    O6337   O    0.13923   0.54379   0.57793   1.000
    O6338   O    0.59183   0.15563   0.57380   1.000
    O6339   O    0.54104   0.13769   0.57809   1.000
    O6340   O    0.66122   0.08080   0.57335   1.000
    O6341   O    0.66726   0.06508   0.57512   1.000
    O6342   O    0.45482   0.86257   0.57855   1.000
    O6343   O    0.98022   0.38782   0.57976   1.000
    O6344   O    0.92102   0.66074   0.57444   1.000
    O6345   O    0.93653   0.66743   0.57495   1.000
    O6346   O    0.54527   0.86277   0.57844   1.000
    O6347   O    0.07997   0.66095   0.57437   1.000
    O6348   O    0.06438   0.66752   0.57498   1.000
    O6349   O    0.57757   0.16073   0.57402   1.000
    O6350   O    0.56210   0.16753   0.57515   1.000
    O6351   O    0.63702   0.04488   0.57852   1.000
    O6352   O    0.45141   0.13634   0.57870   1.000
    O6353   O    0.86350   0.45399   0.57865   1.000
    O6354   O    0.02329   0.38849   0.58002   1.000
    O6355   O    0.32511   0.94836   0.57396   1.000
    O6356   O    0.41699   0.84101   0.57368   1.000
    O6357   O    0.43202   0.83356   0.57609   1.000
    O6358   O    0.36205   0.04441   0.57924   1.000
    O6359   O    0.09428   0.65604   0.57463   1.000
    O6360   O    0.07585   0.34155   0.58270   1.000
    O6361   O    0.39945   0.16641   0.57659   1.000
    O6362   O    0.90678   0.65570   0.57480   1.000
    O6363   O    0.81511   0.56171   0.57691   1.000
    O6364   O    0.94942   0.32458   0.57450   1.000
    O6365   O    0.34017   0.08208   0.57397   1.000
    O6366   O    0.33288   0.06705   0.57663   1.000
    O6367   O    0.68924   0.91457   0.58304   1.000
    O6368   O    0.63609   0.95688   0.57952   1.000
    O6369   O    0.80999   0.41320   0.58319   1.000
    O6370   O    0.57397   0.84069   0.58315   1.000
    O6371   O    0.33034   0.90624   0.57837   1.000
    O6372   O    0.38853   0.97758   0.58147   1.000
    O6373   O    0.90734   0.33030   0.57835   1.000
    O6374   O    0.88904   0.47746   0.58157   1.000
    O6375   O    0.88874   0.52044   0.58161   1.000
    O6376   O    0.17170   0.59376   0.57819   1.000
    O6377   O    0.97926   0.61046   0.58174   1.000
    O6378   O    0.11337   0.47796   0.58189   1.000
    O6379   O    0.84169   0.42546   0.58403   1.000
    O6380   O    0.02198   0.61049   0.58192   1.000
    O6381   O    0.47879   0.88807   0.58191   1.000
    O6382   O    0.52180   0.88845   0.58194   1.000
    O6383   O    0.11289   0.52093   0.58202   1.000
    O6384   O    0.94989   0.67443   0.57602   1.000
    O6385   O    0.40277   0.83309   0.57851   1.000
    O6386   O    0.67033   0.09401   0.57898   1.000
    O6387   O    0.05095   0.67443   0.57612   1.000
    O6388   O    0.33224   0.09634   0.57874   1.000
    O6389   O    0.65819   0.92832   0.58459   1.000
    O6390   O    0.51860   0.11128   0.58244   1.000
    O6391   O    0.61013   0.97989   0.58270   1.000
    O6392   O    0.38762   0.02038   0.58263   1.000
    O6393   O    0.61032   0.02260   0.58291   1.000
    O6394   O    0.31688   0.93730   0.57982   1.000
    O6395   O    0.47559   0.11094   0.58296   1.000
    O6396   O    0.54882   0.17464   0.57673   1.000
    O6397   O    0.59099   0.16914   0.58015   1.000
    O6398   O    0.84443   0.59264   0.57640   1.000
    O6399   O    0.93820   0.31646   0.58018   1.000
    O6400   O    0.17591   0.55132   0.57694   1.000
    O6401   O    0.67378   0.05155   0.57724   1.000
    O6402   O    0.09302   0.66950   0.58106   1.000
    O6403   O    0.90795   0.66913   0.58131   1.000
    O6404   O    0.99210   0.42677   0.58413   1.000
    O6405   O    0.01039   0.42684   0.58435   1.000
    O6406   O    0.44154   0.17316   0.57725   1.000
    O6407   O    0.83021   0.59171   0.58109   1.000
    O6408   O    0.93897   0.68257   0.58224   1.000
    O6409   O    0.06185   0.68269   0.58220   1.000
    O6410   O    0.18441   0.56257   0.58194   1.000
    O6411   O    0.42951   0.18112   0.58139   1.000
    O6412   O    0.92762   0.48985   0.58528   1.000
    O6413   O    0.92758   0.50813   0.58536   1.000
    O6414   O    0.56007   0.18277   0.58236   1.000
    O6415   O    0.99156   0.57158   0.58540   1.000
    O6416   O    0.00982   0.57155   0.58542   1.000
    O6417   O    0.44480   0.82583   0.57866   1.000
    O6418   O    0.68242   0.06257   0.58249   1.000
    O6419   O    0.07433   0.49014   0.58550   1.000
    O6420   O    0.07431   0.50838   0.58572   1.000
    O6421   O    0.60902   0.78026   0.58538   1.000
    O6422   O    0.49083   0.92694   0.58593   1.000
    O6423   O    0.50907   0.92704   0.58606   1.000
    O6424   O    0.32530   0.05427   0.57943   1.000
    O6425   O    0.57138   0.99202   0.58648   1.000
    O6426   O    0.57126   0.01033   0.58653   1.000
    O6427   O    0.42677   0.99008   0.58665   1.000
    O6428   O    0.42668   0.00834   0.58677   1.000
    O6429   O    0.43281   0.81815   0.58332   1.000
    O6430   O    0.11117   0.28137   0.58698   1.000
    O6431   O    0.48874   0.07235   0.58745   1.000
    O6432   O    0.50699   0.07278   0.58749   1.000
    O6433   O    0.31761   0.06629   0.58405   1.000
    O6434   O    0.38742   0.17436   0.58059   1.000
    O6435   O    0.40019   0.18200   0.58325   1.000
    O6436   O    0.71750   0.89228   0.58787   1.000
    O6437   O    0.80080   0.56088   0.58130   1.000
    O6438   O    0.80651   0.57462   0.58384   1.000
    O6439   O    0.77958   0.39406   0.58864   1.000
    O6440   O    0.21573   0.39676   0.58738   1.000
    O6441   O    0.17996   0.60498   0.58342   1.000
    O6442   O    0.18699   0.59160   0.58539   1.000
    O6443   O    0.39076   0.82542   0.58302   1.000
    O6444   O    0.40352   0.81770   0.58573   1.000
    O6445   O    0.32457   0.10837   0.58322   1.000
    O6446   O    0.31699   0.09561   0.58617   1.000
    O6447   O    0.89618   0.32251   0.58430   1.000
    O6448   O    0.90937   0.31493   0.58547   1.000
    O6449   O    0.32249   0.89524   0.58456   1.000
    O6450   O    0.31510   0.90855   0.58558   1.000
    O6451   O    0.63384   0.75663   0.58944   1.000
    O6452   O    0.67871   0.10501   0.58449   1.000
    O6453   O    0.68548   0.09148   0.58642   1.000
    O6454   O    0.30835   0.92408   0.58627   1.000
    O6455   O    0.30345   0.93842   0.58630   1.000
    O6456   O    0.92480   0.30799   0.58635   1.000
    O6457   O    0.93908   0.30293   0.58659   1.000
    O6458   O    0.60217   0.17693   0.58607   1.000
    O6459   O    0.58895   0.18440   0.58740   1.000
    O6460   O    0.75460   0.37115   0.59160   1.000
    O6461   O    0.41522   0.18937   0.58564   1.000
    O6462   O    0.42932   0.19494   0.58696   1.000
    O6463   O    0.81411   0.58958   0.58604   1.000
    O6464   O    0.82189   0.60252   0.58726   1.000
    O6465   O    0.20298   0.40521   0.58899   1.000
    O6466   O    0.18716   0.41297   0.59128   1.000
    O6467   O    0.13581   0.25781   0.59189   1.000
    O6468   O    0.10386   0.67737   0.58746   1.000
    O6469   O    0.09049   0.68468   0.58835   1.000
    O6470   O    0.89711   0.67685   0.58787   1.000
    O6471   O    0.91039   0.68428   0.58868   1.000
    O6472   O    0.74012   0.86670   0.59234   1.000
    O6473   O    0.19336   0.57601   0.58726   1.000
    O6474   O    0.19789   0.56160   0.58842   1.000
    O6475   O    0.40029   0.19796   0.58999   1.000
    O6476   O    0.24040   0.63715   0.59306   1.000
    O6477   O    0.57349   0.19123   0.58848   1.000
    O6478   O    0.55919   0.19620   0.58888   1.000
    O6479   O    0.06053   0.69608   0.58875   1.000
    O6480   O    0.07491   0.69130   0.58888   1.000
    O6481   O    0.69153   0.07576   0.58816   1.000
    O6482   O    0.69579   0.06126   0.58916   1.000
    O6483   O    0.94021   0.69592   0.58888   1.000
    O6484   O    0.92590   0.69103   0.58910   1.000
    O6485   O    0.21373   0.61538   0.59172   1.000
    O6486   O    0.79736   0.58761   0.59088   1.000
    O6487   O    0.41853   0.81021   0.58813   1.000
    O6488   O    0.43262   0.80452   0.58943   1.000
    O6489   O    0.99250   0.38973   0.59490   1.000
    O6490   O    0.01077   0.39004   0.59500   1.000
    O6491   O    0.30966   0.08059   0.58882   1.000
    O6492   O    0.30410   0.06651   0.59033   1.000
    O6493   O    0.91157   0.29900   0.59310   1.000
    O6494   O    0.29933   0.91106   0.59334   1.000
    O6495   O    0.20275   0.58931   0.59322   1.000
    O6496   O    0.78202   0.58880   0.59186   1.000
    O6497   O    0.40358   0.80191   0.59290   1.000
    O6498   O    0.71236   0.11470   0.59370   1.000
    O6499   O    0.39005   0.98961   0.59695   1.000
    O6500   O    0.89106   0.48977   0.59668   1.000
    O6501   O    0.89093   0.50804   0.59670   1.000
    O6502   O    0.99153   0.60827   0.59686   1.000
    O6503   O    0.49117   0.89002   0.59699   1.000
    O6504   O    0.50944   0.89019   0.59700   1.000
    O6505   O    0.70109   0.08880   0.59450   1.000
    O6506   O    0.00970   0.60828   0.59693   1.000
    O6507   O    0.11115   0.49013   0.59703   1.000
    O6508   O    0.30135   0.09556   0.59353   1.000
    O6509   O    0.11094   0.50842   0.59706   1.000
    O6510   O    0.17186   0.42021   0.59341   1.000
    O6511   O    0.15831   0.42657   0.59432   1.000
    O6512   O    0.73807   0.13708   0.59598   1.000
    O6513   O    0.50636   0.10946   0.59775   1.000
    O6514   O    0.75660   0.61555   0.59760   1.000
    O6515   O    0.38965   0.00783   0.59749   1.000
    O6516   O    0.58676   0.20018   0.59517   1.000
    O6517   O    0.38784   0.20676   0.59194   1.000
    O6518   O    0.60812   0.99211   0.59780   1.000
    O6519   O    0.48805   0.10933   0.59801   1.000
    O6520   O    0.60822   0.01026   0.59791   1.000
    O6521   O    0.88481   0.28977   0.59452   1.000
    O6522   O    0.59254   0.80091   0.59572   1.000
    O6523   O    0.58567   0.81683   0.59611   1.000
    O6524   O    0.08778   0.70044   0.59610   1.000
    O6525   O    0.08735   0.31798   0.59639   1.000
    O6526   O    0.09427   0.30208   0.59647   1.000
    O6527   O    0.91300   0.70001   0.59648   1.000
    O6528   O    0.28988   0.88447   0.59528   1.000
    O6529   O    0.61336   0.20978   0.59577   1.000
    O6530   O    0.97965   0.42844   0.59910   1.000
    O6531   O    0.02262   0.42867   0.59963   1.000
    O6532   O    0.37354   0.23964   0.59855   1.000
    O6533   O    0.07417   0.34711   0.59666   1.000
    O6534   O    0.08032   0.33346   0.59700   1.000
    O6535   O    0.21394   0.39999   0.60154   1.000
    O6536   O    0.60163   0.78602   0.59664   1.000
    O6537   O    0.61079   0.77126   0.59773   1.000
    O6538   O    0.86083   0.26567   0.59815   1.000
    O6539   O    0.92975   0.47734   0.60029   1.000
    O6540   O    0.07224   0.47765   0.60042   1.000
    O6541   O    0.69751   0.90955   0.59790   1.000
    O6542   O    0.68165   0.91647   0.59802   1.000
    O6543   O    0.97924   0.56944   0.60044   1.000
    O6544   O    0.92967   0.52039   0.60048   1.000
    O6545   O    0.02212   0.56937   0.60053   1.000
    O6546   O    0.57874   0.83233   0.59718   1.000
    O6547   O    0.57268   0.84601   0.59724   1.000
    O6548   O    0.63696   0.23429   0.59867   1.000
    O6549   O    0.81798   0.41482   0.59801   1.000
    O6550   O    0.80175   0.40874   0.59834   1.000
    O6551   O    0.07218   0.52059   0.60089   1.000
    O6552   O    0.26539   0.86105   0.59874   1.000
    O6553   O    0.47848   0.92872   0.60095   1.000
    O6554   O    0.39907   0.21251   0.59937   1.000
    O6555   O    0.52141   0.92899   0.60120   1.000
    O6556   O    0.84776   0.42635   0.59788   1.000
    O6557   O    0.83384   0.42093   0.59841   1.000
    O6558   O    0.56950   0.97951   0.60144   1.000
    O6559   O    0.39101   0.79351   0.59540   1.000
    O6560   O    0.56923   0.02259   0.60157   1.000
    O6561   O    0.10342   0.28726   0.59791   1.000
    O6562   O    0.11265   0.27257   0.59950   1.000
    O6563   O    0.42859   0.97746   0.60164   1.000
    O6564   O    0.37666   0.76068   0.60078   1.000
    O6565   O    0.65244   0.92938   0.59854   1.000
    O6566   O    0.66613   0.92336   0.59878   1.000
    O6567   O    0.11425   0.71005   0.59822   1.000
    O6568   O    0.42836   0.02044   0.60200   1.000
    O6569   O    0.29289   0.10813   0.59598   1.000
    O6570   O    0.23938   0.37275   0.60136   1.000
    O6571   O    0.78842   0.59718   0.60206   1.000
    O6572   O    0.26005   0.12229   0.60128   1.000
    O6573   O    0.88644   0.70939   0.59877   1.000
    O6574   O    0.47651   0.07035   0.60257   1.000
    O6575   O    0.71203   0.90003   0.59901   1.000
    O6576   O    0.72641   0.89039   0.60024   1.000
    O6577   O    0.51953   0.07134   0.60259   1.000
    O6578   O    0.62259   0.75859   0.59932   1.000
    O6579   O    0.63441   0.74638   0.60038   1.000
    O6580   O    0.04735   0.45326   0.60246   1.000
    O6581   O    0.78644   0.40051   0.59984   1.000
    O6582   O    0.77135   0.39188   0.60136   1.000
    O6583   O    0.95498   0.45326   0.60240   1.000
    O6584   O    0.95459   0.54470   0.60290   1.000
    O6585   O    0.21423   0.60177   0.59724   1.000
    O6586   O    0.22557   0.61425   0.60145   1.000
    O6587   O    0.04705   0.54475   0.60314   1.000
    O6588   O    0.40233   0.78726   0.60233   1.000
    O6589   O    0.17971   0.41407   0.60449   1.000
    O6590   O    0.13814   0.73373   0.60231   1.000
    O6591   O    0.28687   0.09685   0.60312   1.000
    O6592   O    0.45383   0.95348   0.60400   1.000
    O6593   O    0.54492   0.95460   0.60407   1.000
    O6594   O    0.86226   0.73279   0.60301   1.000
    O6595   O    0.21525   0.58795   0.60208   1.000
    O6596   O    0.89891   0.28818   0.59826   1.000
    O6597   O    0.91311   0.28613   0.60135   1.000
    O6598   O    0.12440   0.25993   0.60152   1.000
    O6599   O    0.13617   0.24770   0.60294   1.000
    O6600   O    0.71269   0.10100   0.59892   1.000
    O6601   O    0.72421   0.11334   0.60336   1.000
    O6602   O    0.45264   0.04524   0.60497   1.000
    O6603   O    0.28847   0.89862   0.59881   1.000
    O6604   O    0.28659   0.91286   0.60168   1.000
    O6605   O    0.88624   0.27738   0.60346   1.000
    O6606   O    0.75809   0.38087   0.60260   1.000
    O6607   O    0.74528   0.36975   0.60317   1.000
    O6608   O    0.73860   0.87818   0.60201   1.000
    O6609   O    0.75037   0.86597   0.60323   1.000
    O6610   O    0.54385   0.04659   0.60500   1.000
    O6611   O    0.64447   0.73548   0.60203   1.000
    O6612   O    0.27754   0.88616   0.60413   1.000
    O6613   O    0.23839   0.62585   0.60293   1.000
    O6614   O    0.25062   0.63760   0.60401   1.000
    O6615   O    0.71348   0.08707   0.60348   1.000
    O6616   O    0.59941   0.21108   0.60007   1.000
    O6617   O    0.61211   0.22195   0.60495   1.000
    O6618   O    0.58532   0.21285   0.60369   1.000
    O6619   O    0.59501   0.79218   0.60811   1.000
    O6620   O    0.73390   0.36030   0.60435   1.000
    O6621   O    0.10008   0.71142   0.60164   1.000
    O6622   O    0.08580   0.71319   0.60442   1.000
    O6623   O    0.58318   0.82427   0.60901   1.000
    O6624   O    0.08449   0.32564   0.60908   1.000
    O6625   O    0.90062   0.71087   0.60213   1.000
    O6626   O    0.91490   0.71274   0.60485   1.000
    O6627   O    0.09637   0.29355   0.60907   1.000
    O6628   O    0.14614   0.23684   0.60481   1.000
    O6629   O    0.11251   0.72248   0.60692   1.000
    O6630   O    0.73671   0.12518   0.60523   1.000
    O6631   O    0.74852   0.13730   0.60669   1.000
    O6632   O    0.76093   0.85561   0.60499   1.000
    O6633   O    0.99227   0.40239   0.60777   1.000
    O6634   O    0.01049   0.40252   0.60805   1.000
    O6635   O    0.88808   0.72181   0.60749   1.000
    O6636   O    0.26165   0.64750   0.60563   1.000
    O6637   O    0.61047   0.75953   0.61103   1.000
    O6638   O    0.70607   0.90704   0.61038   1.000
    O6639   O    0.82621   0.41676   0.61056   1.000
    O6640   O    0.73428   0.62647   0.60779   1.000
    O6641   O    0.67386   0.91873   0.61075   1.000
    O6642   O    0.87375   0.26566   0.60603   1.000
    O6643   O    0.86109   0.25452   0.60816   1.000
    O6644   O    0.79366   0.40631   0.61116   1.000
    O6645   O    0.26560   0.87393   0.60663   1.000
    O6646   O    0.25417   0.86154   0.60859   1.000
    O6647   O    0.90390   0.48966   0.60945   1.000
    O6648   O    0.90385   0.50798   0.60950   1.000
    O6649   O    0.99152   0.59533   0.60955   1.000
    O6650   O    0.00971   0.59530   0.60959   1.000
    O6651   O    0.62446   0.23387   0.60713   1.000
    O6652   O    0.63695   0.24524   0.60881   1.000
    O6653   O    0.49114   0.90276   0.60980   1.000
    O6654   O    0.50939   0.90285   0.60991   1.000
    O6655   O    0.09814   0.48997   0.60969   1.000
    O6656   O    0.09813   0.50827   0.60990   1.000
    O6657   O    0.40245   0.98938   0.61022   1.000
    O6658   O    0.40241   0.00767   0.61039   1.000
    O6659   O    0.11211   0.26105   0.61301   1.000
    O6660   O    0.37185   0.25013   0.60900   1.000
    O6661   O    0.38450   0.23867   0.60906   1.000
    O6662   O    0.63424   0.73518   0.61324   1.000
    O6663   O    0.74791   0.62030   0.60880   1.000
    O6664   O    0.76335   0.61349   0.61102   1.000
    O6665   O    0.41006   0.21778   0.60747   1.000
    O6666   O    0.39778   0.22685   0.60913   1.000
    O6667   O    0.59538   0.99197   0.61052   1.000
    O6668   O    0.59530   0.01022   0.61053   1.000
    O6669   O    0.73812   0.89052   0.61352   1.000
    O6670   O    0.48840   0.09663   0.61104   1.000
    O6671   O    0.50675   0.09709   0.61105   1.000
    O6672   O    0.75920   0.14748   0.60857   1.000
    O6673   O    0.36112   0.26048   0.60964   1.000
    O6674   O    0.23724   0.61382   0.61477   1.000
    O6675   O    0.97974   0.41734   0.60983   1.000
    O6676   O    0.96859   0.42959   0.61149   1.000
    O6677   O    0.76072   0.39126   0.61563   1.000
    O6678   O    0.02264   0.41763   0.61041   1.000
    O6679   O    0.03350   0.43011   0.61218   1.000
    O6680   O    0.37452   0.75020   0.61118   1.000
    O6681   O    0.38746   0.76125   0.61148   1.000
    O6682   O    0.12492   0.73415   0.60962   1.000
    O6683   O    0.13755   0.74528   0.61173   1.000
    O6684   O    0.26112   0.36076   0.61142   1.000
    O6685   O    0.13575   0.23660   0.61594   1.000
    O6686   O    0.24961   0.12449   0.61165   1.000
    O6687   O    0.26082   0.11166   0.61217   1.000
    O6688   O    0.41344   0.78143   0.61000   1.000
    O6689   O    0.40093   0.77274   0.61178   1.000
    O6690   O    0.73518   0.36884   0.61682   1.000
    O6691   O    0.91899   0.47724   0.61129   1.000
    O6692   O    0.93142   0.46612   0.61249   1.000
    O6693   O    0.76162   0.86601   0.61602   1.000
    O6694   O    0.25001   0.37078   0.61167   1.000
    O6695   O    0.23773   0.38257   0.61281   1.000
    O6696   O    0.08303   0.47756   0.61144   1.000
    O6697   O    0.07054   0.46660   0.61275   1.000
    O6698   O    0.97924   0.58024   0.61140   1.000
    O6699   O    0.96834   0.56779   0.61288   1.000
    O6700   O    0.91889   0.52032   0.61147   1.000
    O6701   O    0.93134   0.53128   0.61292   1.000
    O6702   O    0.87553   0.73335   0.61025   1.000
    O6703   O    0.86277   0.74436   0.61240   1.000
    O6704   O    0.36353   0.74014   0.61164   1.000
    O6705   O    0.02204   0.58016   0.61150   1.000
    O6706   O    0.03299   0.56771   0.61307   1.000
    O6707   O    0.23947   0.13542   0.61192   1.000
    O6708   O    0.85049   0.24431   0.61054   1.000
    O6709   O    0.73635   0.11244   0.61636   1.000
    O6710   O    0.88762   0.26451   0.61566   1.000
    O6711   O    0.64748   0.25553   0.61088   1.000
    O6712   O    0.47865   0.91774   0.61179   1.000
    O6713   O    0.46746   0.92995   0.61333   1.000
    O6714   O    0.08300   0.52056   0.61190   1.000
    O6715   O    0.07040   0.53144   0.61333   1.000
    O6716   O    0.26177   0.63731   0.61691   1.000
    O6717   O    0.24383   0.85114   0.61085   1.000
    O6718   O    0.28127   0.08581   0.61100   1.000
    O6719   O    0.27246   0.09830   0.61265   1.000
    O6720   O    0.52159   0.91800   0.61204   1.000
    O6721   O    0.53243   0.93058   0.61357   1.000
    O6722   O    0.95649   0.44225   0.61258   1.000
    O6723   O    0.94429   0.45424   0.61296   1.000
    O6724   O    0.58040   0.97951   0.61235   1.000
    O6725   O    0.56825   0.96828   0.61370   1.000
    O6726   O    0.04554   0.44276   0.61311   1.000
    O6727   O    0.05775   0.45470   0.61328   1.000
    O6728   O    0.26473   0.88775   0.61629   1.000
    O6729   O    0.41754   0.97711   0.61235   1.000
    O6730   O    0.43011   0.96621   0.61382   1.000
    O6731   O    0.58017   0.02253   0.61245   1.000
    O6732   O    0.56784   0.03357   0.61397   1.000
    O6733   O    0.79478   0.60478   0.61289   1.000
    O6734   O    0.77950   0.60687   0.61314   1.000
    O6735   O    0.95631   0.55511   0.61360   1.000
    O6736   O    0.94413   0.54317   0.61362   1.000
    O6737   O    0.41736   0.02012   0.61276   1.000
    O6738   O    0.42963   0.03123   0.61456   1.000
    O6739   O    0.04514   0.55509   0.61387   1.000
    O6740   O    0.05749   0.54324   0.61396   1.000
    O6741   O    0.61110   0.23449   0.61743   1.000
    O6742   O    0.51947   0.08237   0.61332   1.000
    O6743   O    0.53080   0.07013   0.61476   1.000
    O6744   O    0.47634   0.08134   0.61333   1.000
    O6745   O    0.46558   0.06868   0.61495   1.000
    O6746   O    0.45533   0.94256   0.61427   1.000
    O6747   O    0.44304   0.95445   0.61446   1.000
    O6748   O    0.54401   0.94364   0.61442   1.000
    O6749   O    0.55574   0.95605   0.61443   1.000
    O6750   O    0.22495   0.39488   0.61412   1.000
    O6751   O    0.21261   0.40387   0.61558   1.000
    O6752   O    0.55498   0.04542   0.61505   1.000
    O6753   O    0.54283   0.05747   0.61537   1.000
    O6754   O    0.76000   0.13672   0.61928   1.000
    O6755   O    0.44211   0.04340   0.61553   1.000
    O6756   O    0.45390   0.05575   0.61565   1.000
    O6757   O    0.11073   0.73576   0.61862   1.000
    O6758   O    0.14818   0.75536   0.61413   1.000
    O6759   O    0.88978   0.73510   0.61919   1.000
    O6760   O    0.73886   0.62546   0.62218   1.000
    O6761   O    0.86233   0.24214   0.61981   1.000
    O6762   O    0.85202   0.75435   0.61482   1.000
    O6763   O    0.24172   0.86303   0.62005   1.000
    O6764   O    0.37085   0.26196   0.62125   1.000
    O6765   O    0.39619   0.23905   0.62125   1.000
    O6766   O    0.63604   0.25738   0.62067   1.000
    O6767   O    0.65805   0.70572   0.61976   1.000
    O6768   O    0.37303   0.73837   0.62336   1.000
    O6769   O    0.26163   0.36909   0.62405   1.000
    O6770   O    0.23781   0.12607   0.62379   1.000
    O6771   O    0.39898   0.76038   0.62385   1.000
    O6772   O    0.13597   0.75816   0.62268   1.000
    O6773   O    0.95702   0.43027   0.62453   1.000
    O6774   O    0.26018   0.10035   0.62472   1.000
    O6775   O    0.86429   0.75729   0.62330   1.000
    O6776   O    0.15918   0.20802   0.62280   1.000
    O6777   O    0.76979   0.61197   0.62660   1.000
    O6778   O    0.93269   0.45412   0.62530   1.000
    O6779   O    0.04466   0.43138   0.62564   1.000
    O6780   O    0.78958   0.84090   0.62322   1.000
    O6781   O    0.06898   0.45515   0.62596   1.000
    O6782   O    0.23699   0.39257   0.62638   1.000
    O6783   O    0.95713   0.56637   0.62617   1.000
    O6784   O    0.93280   0.54264   0.62617   1.000
    O6785   O    0.04409   0.56627   0.62649   1.000
    O6786   O    0.06876   0.54276   0.62662   1.000
    O6787   O    0.45586   0.93066   0.62630   1.000
    O6788   O    0.71160   0.65273   0.62479   1.000
    O6789   O    0.54420   0.93176   0.62656   1.000
    O6790   O    0.56755   0.95647   0.62654   1.000
    O6791   O    0.43136   0.95432   0.62671   1.000
    O6792   O    0.56711   0.04526   0.62683   1.000
    O6793   O    0.70954   0.34209   0.62481   1.000
    O6794   O    0.21161   0.84031   0.62484   1.000
    O6795   O    0.59998   0.75901   0.62199   1.000
    O6796   O    0.61018   0.74824   0.62380   1.000
    O6797   O    0.54294   0.06928   0.62750   1.000
    O6798   O    0.43070   0.04245   0.62794   1.000
    O6799   O    0.28947   0.66265   0.62532   1.000
    O6800   O    0.34502   0.28940   0.62577   1.000
    O6801   O    0.45412   0.06711   0.62817   1.000
    O6802   O    0.65932   0.28714   0.62576   1.000
    O6803   O    0.84200   0.78784   0.62592   1.000
    O6804   O    0.15831   0.78854   0.62594   1.000
    O6805   O    0.21042   0.15277   0.62708   1.000
    O6806   O    0.10146   0.26073   0.62382   1.000
    O6807   O    0.11159   0.24995   0.62594   1.000
    O6808   O    0.62213   0.73610   0.62495   1.000
    O6809   O    0.63437   0.72352   0.62643   1.000
    O6810   O    0.73901   0.90118   0.62429   1.000
    O6811   O    0.74942   0.89066   0.62625   1.000
    O6812   O    0.29009   0.34305   0.62784   1.000
    O6813   O    0.89932   0.26254   0.62521   1.000
    O6814   O    0.88883   0.25220   0.62740   1.000
    O6815   O    0.23713   0.60382   0.62624   1.000
    O6816   O    0.24832   0.61355   0.62771   1.000
    O6817   O    0.26299   0.89945   0.62583   1.000
    O6818   O    0.25238   0.88918   0.62791   1.000
    O6819   O    0.76114   0.87835   0.62753   1.000
    O6820   O    0.77340   0.86582   0.62904   1.000
    O6821   O    0.12346   0.23773   0.62745   1.000
    O6822   O    0.13538   0.22540   0.62897   1.000
    O6823   O    0.73701   0.10173   0.62718   1.000
    O6824   O    0.74784   0.11183   0.62897   1.000
    O6825   O    0.34401   0.71396   0.62979   1.000
    O6826   O    0.76178   0.40020   0.62787   1.000
    O6827   O    0.75050   0.39051   0.62926   1.000
    O6828   O    0.59986   0.23599   0.62754   1.000
    O6829   O    0.61023   0.24653   0.62941   1.000
    O6830   O    0.78467   0.16392   0.62983   1.000
    O6831   O    0.26061   0.62528   0.62876   1.000
    O6832   O    0.27332   0.63732   0.63019   1.000
    O6833   O    0.09868   0.73820   0.62756   1.000
    O6834   O    0.10919   0.74855   0.62976   1.000
    O6835   O    0.73777   0.37921   0.62988   1.000
    O6836   O    0.72469   0.36742   0.63075   1.000
    O6837   O    0.64620   0.71007   0.62866   1.000
    O6838   O    0.65544   0.69816   0.63244   1.000
    O6839   O    0.90189   0.73767   0.62806   1.000
    O6840   O    0.89126   0.74793   0.63029   1.000
    O6841   O    0.87621   0.24097   0.62943   1.000
    O6842   O    0.86336   0.22922   0.63168   1.000
    O6843   O    0.24080   0.87684   0.62971   1.000
    O6844   O    0.22863   0.86430   0.63160   1.000
    O6845   O    0.75967   0.12400   0.63042   1.000
    O6846   O    0.77184   0.13657   0.63223   1.000
    O6847   O    0.62267   0.25804   0.63097   1.000
    O6848   O    0.63531   0.27014   0.63266   1.000
    O6849   O    0.83530   0.21773   0.63191   1.000
    O6850   O    0.61063   0.73800   0.63466   1.000
    O6851   O    0.14697   0.21235   0.63129   1.000
    O6852   O    0.15596   0.20024   0.63516   1.000
    O6853   O    0.78630   0.85350   0.63148   1.000
    O6854   O    0.79812   0.84410   0.63511   1.000
    O6855   O    0.12179   0.75983   0.63170   1.000
    O6856   O    0.13464   0.77171   0.63363   1.000
    O6857   O    0.40603   0.24048   0.63261   1.000
    O6858   O    0.39527   0.25085   0.63338   1.000
    O6859   O    0.38257   0.26230   0.63344   1.000
    O6860   O    0.36988   0.27389   0.63356   1.000
    O6861   O    0.87852   0.75911   0.63226   1.000
    O6862   O    0.86557   0.77092   0.63413   1.000
    O6863   O    0.71231   0.35473   0.63319   1.000
    O6864   O    0.70092   0.34486   0.63669   1.000
    O6865   O    0.21513   0.85267   0.63338   1.000
    O6866   O    0.20288   0.84375   0.63647   1.000
    O6867   O    0.11178   0.23991   0.63694   1.000
    O6868   O    0.75964   0.89003   0.63708   1.000
    O6869   O    0.28618   0.64963   0.63308   1.000
    O6870   O    0.29768   0.65909   0.63737   1.000
    O6871   O    0.63577   0.71140   0.63978   1.000
    O6872   O    0.71555   0.64233   0.63547   1.000
    O6873   O    0.70309   0.65136   0.63713   1.000
    O6874   O    0.38454   0.73750   0.63572   1.000
    O6875   O    0.37121   0.72608   0.63580   1.000
    O6876   O    0.64713   0.28354   0.63447   1.000
    O6877   O    0.65607   0.29583   0.63751   1.000
    O6878   O    0.35736   0.28634   0.63471   1.000
    O6879   O    0.34760   0.29812   0.63767   1.000
    O6880   O    0.72938   0.63098   0.63571   1.000
    O6881   O    0.74518   0.62372   0.63779   1.000
    O6882   O    0.14627   0.78520   0.63493   1.000
    O6883   O    0.15540   0.79741   0.63763   1.000
    O6884   O    0.88906   0.24114   0.63748   1.000
    O6885   O    0.40864   0.75851   0.63534   1.000
    O6886   O    0.39755   0.74847   0.63592   1.000
    O6887   O    0.85391   0.78445   0.63517   1.000
    O6888   O    0.84480   0.79671   0.63762   1.000
    O6889   O    0.22547   0.12793   0.63612   1.000
    O6890   O    0.23716   0.11475   0.63636   1.000
    O6891   O    0.25835   0.61404   0.63873   1.000
    O6892   O    0.24118   0.88967   0.63776   1.000
    O6893   O    0.95654   0.42013   0.63569   1.000
    O6894   O    0.94536   0.43013   0.63697   1.000
    O6895   O    0.27382   0.36726   0.63665   1.000
    O6896   O    0.26086   0.37910   0.63761   1.000
    O6897   O    0.25850   0.09084   0.63636   1.000
    O6898   O    0.24832   0.10185   0.63677   1.000
    O6899   O    0.21296   0.14094   0.63673   1.000
    O6900   O    0.20139   0.15108   0.63892   1.000
    O6901   O    0.92280   0.45287   0.63662   1.000
    O6902   O    0.93324   0.44200   0.63736   1.000
    O6903   O    0.75821   0.11213   0.63977   1.000
    O6904   O    0.13601   0.21342   0.64194   1.000
    O6905   O    0.61021   0.25743   0.63958   1.000
    O6906   O    0.28708   0.35492   0.63724   1.000
    O6907   O    0.29925   0.34545   0.63952   1.000
    O6908   O    0.78618   0.86482   0.64177   1.000
    O6909   O    0.74112   0.38908   0.64083   1.000
    O6910   O    0.10864   0.76014   0.63920   1.000
    O6911   O    0.04495   0.42168   0.63721   1.000
    O6912   O    0.05593   0.43189   0.63848   1.000
    O6913   O    0.07840   0.45459   0.63775   1.000
    O6914   O    0.06805   0.44371   0.63863   1.000
    O6915   O    0.45535   0.92057   0.63750   1.000
    O6916   O    0.44412   0.93053   0.63862   1.000
    O6917   O    0.78353   0.14969   0.63590   1.000
    O6918   O    0.79450   0.15968   0.64034   1.000
    O6919   O    0.92326   0.54317   0.63784   1.000
    O6920   O    0.93366   0.55398   0.63886   1.000
    O6921   O    0.89172   0.75957   0.63970   1.000
    O6922   O    0.95678   0.57597   0.63776   1.000
    O6923   O    0.94580   0.56577   0.63888   1.000
    O6924   O    0.57758   0.95584   0.63779   1.000
    O6925   O    0.56776   0.94452   0.63874   1.000
    O6926   O    0.54549   0.92164   0.63774   1.000
    O6927   O    0.55614   0.93222   0.63876   1.000
    O6928   O    0.57738   0.04607   0.63781   1.000
    O6929   O    0.56725   0.05712   0.63903   1.000
    O6930   O    0.42140   0.95309   0.63798   1.000
    O6931   O    0.43191   0.94230   0.63884   1.000
    O6932   O    0.04422   0.57579   0.63814   1.000
    O6933   O    0.05534   0.56570   0.63930   1.000
    O6934   O    0.24849   0.39078   0.63879   1.000
    O6935   O    0.23734   0.40079   0.63903   1.000
    O6936   O    0.07825   0.54335   0.63838   1.000
    O6937   O    0.06766   0.55404   0.63935   1.000
    O6938   O    0.28591   0.63800   0.64311   1.000
    O6939   O    0.35735   0.71469   0.63760   1.000
    O6940   O    0.34656   0.70400   0.64077   1.000
    O6941   O    0.54420   0.07937   0.63867   1.000
    O6942   O    0.55523   0.06910   0.63939   1.000
    O6943   O    0.85022   0.21775   0.63606   1.000
    O6944   O    0.84042   0.20669   0.64074   1.000
    O6945   O    0.71199   0.36589   0.64365   1.000
    O6946   O    0.21532   0.86387   0.64381   1.000
    O6947   O    0.76067   0.61704   0.63999   1.000
    O6948   O    0.77450   0.61122   0.64093   1.000
    O6949   O    0.42094   0.04269   0.63939   1.000
    O6950   O    0.43100   0.05381   0.64065   1.000
    O6951   O    0.86400   0.21442   0.64200   1.000
    O6952   O    0.45336   0.07667   0.63980   1.000
    O6953   O    0.44265   0.06611   0.64075   1.000
    O6954   O    0.78554   0.13684   0.64411   1.000
    O6955   O    0.63603   0.28329   0.64500   1.000
    O6956   O    0.39386   0.26135   0.64368   1.000
    O6957   O    0.36820   0.28651   0.64557   1.000
    O6958   O    0.13543   0.78517   0.64572   1.000
    O6959   O    0.86463   0.78443   0.64615   1.000
    O6960   O    0.66692   0.68225   0.63930   1.000
    O6961   O    0.65078   0.69231   0.64560   1.000
    O6962   O    0.71650   0.63340   0.64794   1.000
    O6963   O    0.68639   0.66319   0.64127   1.000
    O6964   O    0.39554   0.73785   0.64620   1.000
    O6965   O    0.36905   0.71232   0.64725   1.000
    O6966   O    0.21234   0.13070   0.64813   1.000
    O6967   O    0.28729   0.36535   0.64843   1.000
    O6968   O    0.23768   0.10388   0.64698   1.000
    O6969   O    0.81452   0.83273   0.64117   1.000
    O6970   O    0.83362   0.81337   0.64221   1.000
    O6971   O    0.80512   0.84956   0.64738   1.000
    O6972   O    0.93329   0.42927   0.64954   1.000
    O6973   O    0.16668   0.18368   0.64167   1.000
    O6974   O    0.15064   0.19403   0.64790   1.000
    O6975   O    0.18621   0.83294   0.64203   1.000
    O6976   O    0.16680   0.81397   0.64256   1.000
    O6977   O    0.18520   0.16362   0.64319   1.000
    O6978   O    0.16817   0.16427   0.64894   1.000
    O6979   O    0.17611   0.17174   0.65610   1.000
    O6980   O    0.68512   0.33296   0.64237   1.000
    O6981   O    0.66675   0.31293   0.64266   1.000
    O6982   O    0.19568   0.84932   0.64854   1.000
    O6983   O    0.25890   0.38865   0.64922   1.000
    O6984   O    0.69373   0.34983   0.64904   1.000
    O6985   O    0.43195   0.92965   0.65104   1.000
    O6986   O    0.56874   0.93216   0.65100   1.000
    O6987   O    0.06763   0.43180   0.65152   1.000
    O6988   O    0.69644   0.64800   0.65033   1.000
    O6989   O    0.33580   0.31449   0.64333   1.000
    O6990   O    0.31617   0.33373   0.64411   1.000
    O6991   O    0.33296   0.33416   0.64980   1.000
    O6992   O    0.32570   0.32629   0.65724   1.000
    O6993   O    0.93403   0.56589   0.65172   1.000
    O6994   O    0.56820   0.06934   0.65131   1.000
    O6995   O    0.84976   0.80409   0.64987   1.000
    O6996   O    0.65055   0.30298   0.64965   1.000
    O6997   O    0.15029   0.80473   0.64985   1.000
    O6998   O    0.35239   0.30532   0.65007   1.000
    O6999   O    0.06702   0.56591   0.65224   1.000
    O7000   O    0.75192   0.62175   0.65119   1.000
    O7001   O    0.31324   0.67063   0.64485   1.000
    O7002   O    0.30430   0.65340   0.64978   1.000
    O7003   O    0.19382   0.14711   0.65140   1.000
    O7004   O    0.43066   0.06555   0.65357   1.000
    O7005   O    0.30672   0.35001   0.65187   1.000
    O7006   O    0.82883   0.19065   0.64724   1.000
    O7007   O    0.84806   0.19675   0.64934   1.000
    O7008   O    0.33327   0.68880   0.64615   1.000
    O7009   O    0.33185   0.67178   0.65110   1.000
    O7010   O    0.80986   0.17165   0.64738   1.000
    O7011   O    0.80306   0.15312   0.65103   1.000
    O7012   O    0.35158   0.69525   0.65212   1.000
    O7013   O    0.92986   0.40078   0.65255   1.000
    O7014   O    0.59656   0.07392   0.65310   1.000
    O7015   O    0.87595   0.20793   0.64945   1.000
    O7016   O    0.86249   0.20133   0.65022   1.000
    O7017   O    0.59715   0.92821   0.65358   1.000
    O7018   O    0.42804   0.90125   0.65371   1.000
    O7019   O    0.63878   0.70027   0.65024   1.000
    O7020   O    0.62726   0.70965   0.65255   1.000
    O7021   O    0.82848   0.17322   0.64997   1.000
    O7022   O    0.79795   0.86222   0.65159   1.000
    O7023   O    0.78924   0.87432   0.65354   1.000
    O7024   O    0.13847   0.20194   0.65221   1.000
    O7025   O    0.12685   0.21124   0.65425   1.000
    O7026   O    0.90611   0.57144   0.65616   1.000
    O7027   O    0.79772   0.13917   0.65350   1.000
    O7028   O    0.79058   0.12594   0.65395   1.000
    O7029   O    0.29724   0.64053   0.65342   1.000
    O7030   O    0.28869   0.62829   0.65487   1.000
    O7031   O    0.09471   0.57231   0.65676   1.000
    O7032   O    0.09562   0.42704   0.65670   1.000
    O7033   O    0.20314   0.86163   0.65316   1.000
    O7034   O    0.21228   0.87331   0.65566   1.000
    O7035   O    0.70037   0.36267   0.65347   1.000
    O7036   O    0.70860   0.37511   0.65559   1.000
    O7037   O    0.64458   0.68468   0.66300   1.000
    O7038   O    0.63831   0.29545   0.65437   1.000
    O7039   O    0.62664   0.28631   0.65687   1.000
    O7040   O    0.42527   0.09348   0.65841   1.000
    O7041   O    0.85857   0.18373   0.66088   1.000
    O7042   O    0.36494   0.29837   0.65503   1.000
    O7043   O    0.37698   0.28992   0.65785   1.000
    O7044   O    0.13805   0.79740   0.65493   1.000
    O7045   O    0.12640   0.78832   0.65784   1.000
    O7046   O    0.81440   0.85727   0.66363   1.000
    O7047   O    0.86190   0.79674   0.65521   1.000
    O7048   O    0.87353   0.78764   0.65841   1.000
    O7049   O    0.83135   0.85103   0.66383   1.000
    O7050   O    0.14358   0.18582   0.66468   1.000
    O7051   O    0.36532   0.70019   0.65619   1.000
    O7052   O    0.37855   0.70697   0.65822   1.000
    O7053   O    0.64816   0.32973   0.66511   1.000
    O7054   O    0.18612   0.85659   0.66438   1.000
    O7055   O    0.14921   0.83115   0.66550   1.000
    O7056   O    0.68400   0.35628   0.66522   1.000
    O7057   O    0.67006   0.64815   0.66656   1.000
    O7058   O    0.31260   0.64600   0.66643   1.000
    O7059   O    0.64277   0.31250   0.66572   1.000
    O7060   O    0.81426   0.14471   0.66530   1.000
    O7061   O    0.20039   0.13468   0.65717   1.000
    O7062   O    0.20858   0.12256   0.66071   1.000
    O7063   O    0.29955   0.36216   0.65743   1.000
    O7064   O    0.29076   0.37386   0.66080   1.000
    O7065   O    0.70453   0.63702   0.65706   1.000
    O7066   O    0.71422   0.62623   0.66139   1.000
    O7067   O    0.14333   0.81438   0.66626   1.000
    O7068   O    0.85608   0.81390   0.66601   1.000
    O7069   O    0.35899   0.31471   0.66637   1.000
    O7070   O    0.68735   0.64266   0.66766   1.000
    O7071   O    0.92843   0.41479   0.65813   1.000
    O7072   O    0.92611   0.42980   0.66553   1.000
    O7073   O    0.35861   0.68393   0.66747   1.000
    O7074   O    0.18382   0.14130   0.66805   1.000
    O7075   O    0.92402   0.40051   0.66628   1.000
    O7076   O    0.31637   0.35666   0.66850   1.000
    O7077   O    0.58323   0.92698   0.65937   1.000
    O7078   O    0.56828   0.92491   0.66698   1.000
    O7079   O    0.58278   0.07468   0.65933   1.000
    O7080   O    0.59725   0.07921   0.66704   1.000
    O7081   O    0.42687   0.91520   0.65946   1.000
    O7082   O    0.42489   0.93017   0.66705   1.000
    O7083   O    0.56804   0.07615   0.66744   1.000
    O7084   O    0.59754   0.92235   0.66734   1.000
    O7085   O    0.42228   0.90092   0.66748   1.000
    O7086   O    0.08121   0.42633   0.66123   1.000
    O7087   O    0.06558   0.42468   0.66743   1.000
    O7088   O    0.92044   0.57174   0.66104   1.000
    O7089   O    0.93600   0.57296   0.66761   1.000
    O7090   O    0.08041   0.57211   0.66163   1.000
    O7091   O    0.06483   0.57281   0.66816   1.000
    O7092   O    0.90712   0.57790   0.66960   1.000
    O7093   O    0.42482   0.07907   0.66307   1.000
    O7094   O    0.42341   0.06342   0.66938   1.000
    O7095   O    0.09457   0.42080   0.67027   1.000
    O7096   O    0.09348   0.57875   0.67019   1.000
    O7097   O    0.41877   0.09232   0.67183   1.000
    O7098   O    0.67777   0.65649   0.67298   1.000
    O7099   O    0.84706   0.17481   0.67099   1.000
    O7100   O    0.86002   0.16415   0.67942   1.000
    O7101   O    0.82339   0.84399   0.67145   1.000
    O7102   O    0.65577   0.32238   0.67285   1.000
    O7103   O    0.15690   0.82389   0.67323   1.000
    O7104   O    0.92368   0.44257   0.67325   1.000
    O7105   O    0.91940   0.43053   0.68112   1.000
    O7106   O    0.05215   0.42268   0.67407   1.000
    O7107   O    0.83354   0.85789   0.68308   1.000
    O7108   O    0.64449   0.66708   0.68378   1.000
    O7109   O    0.34457   0.67622   0.67542   1.000
    O7110   O    0.16705   0.85717   0.68373   1.000
    O7111   O    0.91987   0.38846   0.67414   1.000
    O7112   O    0.91728   0.40120   0.68183   1.000
    O7113   O    0.94936   0.57462   0.67452   1.000
    O7114   O    0.60949   0.08337   0.67456   1.000
    O7115   O    0.83461   0.14411   0.68349   1.000
    O7116   O    0.05142   0.57403   0.67503   1.000
    O7117   O    0.06331   0.41753   0.68269   1.000
    O7118   O    0.55558   0.92267   0.67483   1.000
    O7119   O    0.56766   0.91825   0.68261   1.000
    O7120   O    0.42276   0.94291   0.67489   1.000
    O7121   O    0.41835   0.93087   0.68269   1.000
    O7122   O    0.59702   0.08514   0.68292   1.000
    O7123   O    0.93823   0.58030   0.68275   1.000
    O7124   O    0.60963   0.91803   0.67506   1.000
    O7125   O    0.14245   0.16759   0.68496   1.000
    O7126   O    0.66443   0.35592   0.68432   1.000
    O7127   O    0.59696   0.91569   0.68297   1.000
    O7128   O    0.41799   0.88887   0.67524   1.000
    O7129   O    0.41572   0.90158   0.68310   1.000
    O7130   O    0.06235   0.58007   0.68330   1.000
    O7131   O    0.64169   0.33228   0.68448   1.000
    O7132   O    0.55554   0.07781   0.67575   1.000
    O7133   O    0.56776   0.08213   0.68332   1.000
    O7134   O    0.85607   0.83401   0.68443   1.000
    O7135   O    0.42159   0.04997   0.67611   1.000
    O7136   O    0.14372   0.83415   0.68525   1.000
    O7137   O    0.35908   0.33330   0.68601   1.000
    O7138   O    0.41600   0.06103   0.68448   1.000
    O7139   O    0.35718   0.66396   0.68604   1.000
    O7140   O    0.33106   0.64424   0.68620   1.000
    O7141   O    0.89604   0.58387   0.67751   1.000
    O7142   O    0.90937   0.58529   0.68475   1.000
    O7143   O    0.66759   0.64389   0.68646   1.000
    O7144   O    0.16418   0.14312   0.68684   1.000
    O7145   O    0.10434   0.58512   0.67807   1.000
    O7146   O    0.09099   0.58609   0.68533   1.000
    O7147   O    0.10570   0.41542   0.67862   1.000
    O7148   O    0.09228   0.41365   0.68556   1.000
    O7149   O    0.33597   0.35625   0.68754   1.000
    O7150   O    0.41293   0.10335   0.67992   1.000
    O7151   O    0.41135   0.08992   0.68696   1.000
    O7152   O    0.91497   0.41621   0.68927   1.000
    O7153   O    0.91374   0.43028   0.69490   1.000
    O7154   O    0.91052   0.40123   0.69776   1.000
    O7155   O    0.85211   0.14990   0.69117   1.000
    O7156   O    0.86548   0.15422   0.69686   1.000
    O7157   O    0.58202   0.91366   0.69063   1.000
    O7158   O    0.56798   0.91266   0.69641   1.000
    O7159   O    0.41377   0.91655   0.69073   1.000
    O7160   O    0.41286   0.93060   0.69651   1.000
    O7161   O    0.92492   0.58647   0.69134   1.000
    O7162   O    0.93929   0.58694   0.69609   1.000
    O7163   O    0.07665   0.41203   0.69178   1.000
    O7164   O    0.06221   0.41110   0.69618   1.000
    O7165   O    0.59709   0.90907   0.69897   1.000
    O7166   O    0.40914   0.90156   0.69909   1.000
    O7167   O    0.58229   0.08658   0.69109   1.000
    O7168   O    0.59749   0.09105   0.69917   1.000
    O7169   O    0.07543   0.58671   0.69191   1.000
    O7170   O    0.06106   0.58666   0.69664   1.000
    O7171   O    0.56841   0.08708   0.69733   1.000
    O7172   O    0.91177   0.59321   0.70042   1.000
    O7173   O    0.84643   0.13914   0.70017   1.000
    O7174   O    0.40998   0.07428   0.69329   1.000
    O7175   O    0.40932   0.05984   0.69781   1.000
    O7176   O    0.84973   0.85097   0.69289   1.000
    O7177   O    0.84492   0.86385   0.69925   1.000
    O7178   O    0.08832   0.59395   0.70101   1.000
    O7179   O    0.08986   0.40595   0.70136   1.000
    O7180   O    0.86199   0.84623   0.70046   1.000
    O7181   O    0.64804   0.34909   0.69353   1.000
    O7182   O    0.63559   0.34391   0.70043   1.000
    O7183   O    0.15109   0.85073   0.69393   1.000
    O7184   O    0.15646   0.86319   0.70062   1.000
    O7185   O    0.65237   0.36176   0.70055   1.000
    O7186   O    0.65089   0.65146   0.69462   1.000
    O7187   O    0.63804   0.65666   0.70068   1.000
    O7188   O    0.40343   0.08739   0.70263   1.000
    O7189   O    0.13903   0.84601   0.70174   1.000
    O7190   O    0.14800   0.15141   0.69536   1.000
    O7191   O    0.13568   0.15726   0.70191   1.000
    O7192   O    0.34841   0.64841   0.69519   1.000
    O7193   O    0.36155   0.65148   0.70208   1.000
    O7194   O    0.34192   0.63684   0.70246   1.000
    O7195   O    0.65546   0.63949   0.70274   1.000
    O7196   O    0.35254   0.34903   0.69627   1.000
    O7197   O    0.36510   0.34379   0.70295   1.000
    O7198   O    0.15218   0.13912   0.70321   1.000
    O7199   O    0.34767   0.36103   0.70410   1.000
    O7200   O    0.87825   0.15662   0.70433   1.000
    O7201   O    0.86832   0.14606   0.70975   1.000
    O7202   O    0.90845   0.38870   0.70644   1.000
    O7203   O    0.90121   0.39995   0.71239   1.000
    O7204   O    0.84222   0.87624   0.70717   1.000
    O7205   O    0.85430   0.86736   0.71107   1.000
    O7206   O    0.88538   0.59372   0.71050   1.000
    O7207   O    0.11480   0.59588   0.71074   1.000
    O7208   O    0.60982   0.90645   0.70716   1.000
    O7209   O    0.59844   0.90042   0.71409   1.000
    O7210   O    0.40672   0.88892   0.70747   1.000
    O7211   O    0.40021   0.90032   0.71395   1.000
    O7212   O    0.61035   0.09326   0.70732   1.000
    O7213   O    0.59908   0.09947   0.71427   1.000
    O7214   O    0.62359   0.34089   0.70884   1.000
    O7215   O    0.63195   0.35348   0.71205   1.000
    O7216   O    0.62553   0.65968   0.70839   1.000
    O7217   O    0.63438   0.64778   0.71290   1.000
    O7218   O    0.65442   0.37394   0.70912   1.000
    O7219   O    0.64242   0.36465   0.71215   1.000
    O7220   O    0.87381   0.84383   0.70948   1.000
    O7221   O    0.86499   0.85636   0.71185   1.000
    O7222   O    0.15972   0.87519   0.70898   1.000
    O7223   O    0.14762   0.86643   0.71293   1.000
    O7224   O    0.84307   0.12887   0.71064   1.000
    O7225   O    0.85640   0.13663   0.71185   1.000
    O7226   O    0.11605   0.40663   0.71222   1.000
    O7227   O    0.89930   0.59814   0.71149   1.000
    O7228   O    0.91339   0.60189   0.71296   1.000
    O7229   O    0.12370   0.16097   0.71013   1.000
    O7230   O    0.13197   0.14845   0.71421   1.000
    O7231   O    0.37387   0.65253   0.71058   1.000
    O7232   O    0.36340   0.64167   0.71397   1.000
    O7233   O    0.12758   0.84347   0.71109   1.000
    O7234   O    0.13672   0.85569   0.71364   1.000
    O7235   O    0.10065   0.59948   0.71198   1.000
    O7236   O    0.08638   0.60242   0.71365   1.000
    O7237   O    0.33766   0.62546   0.71131   1.000
    O7238   O    0.35112   0.63250   0.71421   1.000
    O7239   O    0.40374   0.11352   0.71331   1.000
    O7240   O    0.10227   0.40168   0.71288   1.000
    O7241   O    0.08830   0.39741   0.71404   1.000
    O7242   O    0.37719   0.34068   0.71131   1.000
    O7243   O    0.36824   0.35264   0.71527   1.000
    O7244   O    0.65769   0.62799   0.71215   1.000
    O7245   O    0.64528   0.63704   0.71418   1.000
    O7246   O    0.15422   0.12749   0.71242   1.000
    O7247   O    0.14232   0.13712   0.71501   1.000
    O7248   O    0.39886   0.09973   0.71400   1.000
    O7249   O    0.39466   0.08573   0.71513   1.000
    O7250   O    0.34499   0.37245   0.71344   1.000
    O7251   O    0.35734   0.36342   0.71599   1.000
    O7252   O    0.88679   0.60296   0.72260   1.000
    O7253   O    0.11309   0.60480   0.72301   1.000
    O7254   O    0.86948   0.13556   0.72433   1.000
    O7255   O    0.11470   0.39735   0.72437   1.000
    O7256   O    0.86643   0.86954   0.72416   1.000
    O7257   O    0.62952   0.36585   0.72483   1.000
    O7258   O    0.39447   0.11217   0.72542   1.000
    O7259   O    0.89331   0.41099   0.71788   1.000
    O7260   O    0.13606   0.86825   0.72660   1.000
    O7261   O    0.63202   0.63595   0.72635   1.000
    O7262   O    0.89158   0.39861   0.72681   1.000
    O7263   O    0.36333   0.62939   0.72716   1.000
    O7264   O    0.39299   0.91153   0.72002   1.000
    O7265   O    0.12990   0.13690   0.72741   1.000
    O7266   O    0.58722   0.89368   0.72069   1.000
    O7267   O    0.58796   0.10635   0.72082   1.000
    O7268   O    0.36995   0.36422   0.72889   1.000
    O7269   O    0.39100   0.89898   0.72862   1.000
    O7270   O    0.59998   0.89152   0.72895   1.000
    O7271   O    0.60066   0.10835   0.72916   1.000
    O7272   O    0.87472   0.60500   0.73480   1.000
    O7273   O    0.88791   0.61554   0.73505   1.000
    O7274   O    0.85774   0.89509   0.73469   1.000
    O7275   O    0.13853   0.59987   0.73473   1.000
    O7276   O    0.60371   0.35763   0.73502   1.000
    O7277   O    0.12544   0.60747   0.73480   1.000
    O7278   O    0.11140   0.61683   0.73599   1.000
    O7279   O    0.86717   0.88315   0.73520   1.000
    O7280   O    0.87845   0.87064   0.73699   1.000
    O7281   O    0.86239   0.59631   0.73556   1.000
    O7282   O    0.11380   0.38463   0.73673   1.000
    O7283   O    0.12652   0.39573   0.73702   1.000
    O7284   O    0.61583   0.36673   0.73578   1.000
    O7285   O    0.62853   0.37767   0.73784   1.000
    O7286   O    0.88171   0.13659   0.73689   1.000
    O7287   O    0.87082   0.12367   0.73727   1.000
    O7288   O    0.89902   0.62585   0.73623   1.000
    O7289   O    0.39277   0.12415   0.73777   1.000
    O7290   O    0.38196   0.11118   0.73800   1.000
    O7291   O    0.60696   0.64551   0.73737   1.000
    O7292   O    0.10315   0.37382   0.73745   1.000
    O7293   O    0.61850   0.63560   0.73757   1.000
    O7294   O    0.63055   0.62381   0.73902   1.000
    O7295   O    0.89198   0.14771   0.73783   1.000
    O7296   O    0.89165   0.38521   0.73850   1.000
    O7297   O    0.87955   0.39700   0.73911   1.000
    O7298   O    0.12381   0.86970   0.73912   1.000
    O7299   O    0.13684   0.88043   0.73920   1.000
    O7300   O    0.11723   0.13738   0.73898   1.000
    O7301   O    0.12895   0.12519   0.73994   1.000
    O7302   O    0.13841   0.40494   0.73828   1.000
    O7303   O    0.36285   0.61647   0.73912   1.000
    O7304   O    0.37524   0.62792   0.74000   1.000
    O7305   O    0.09949   0.62610   0.73803   1.000
    O7306   O    0.40171   0.13629   0.73859   1.000
    O7307   O    0.62672   0.09928   0.73942   1.000
    O7308   O    0.86170   0.11167   0.73880   1.000
    O7309   O    0.62554   0.90121   0.73950   1.000
    O7310   O    0.10604   0.14773   0.73943   1.000
    O7311   O    0.37144   0.10028   0.73919   1.000
    O7312   O    0.35230   0.60559   0.73951   1.000
    O7313   O    0.90208   0.37416   0.73927   1.000
    O7314   O    0.39078   0.88516   0.73980   1.000
    O7315   O    0.37931   0.89752   0.74127   1.000
    O7316   O    0.40066   0.87357   0.73980   1.000
    O7317   O    0.61400   0.89133   0.73984   1.000
    O7318   O    0.60172   0.87987   0.74170   1.000
    O7319   O    0.61479   0.10871   0.74000   1.000
    O7320   O    0.60208   0.11966   0.74207   1.000
    O7321   O    0.38235   0.36372   0.74132   1.000
    O7322   O    0.37119   0.37646   0.74140   1.000
    O7323   O    0.11165   0.86072   0.74026   1.000
    O7324   O    0.88917   0.86020   0.73967   1.000
    O7325   O    0.14801   0.89062   0.74054   1.000
    O7326   O    0.86827   0.40694   0.74077   1.000
    O7327   O    0.13803   0.60962   0.74601   1.000
    O7328   O    0.86761   0.89650   0.74572   1.000
    O7329   O    0.86250   0.60651   0.74646   1.000
    O7330   O    0.60244   0.36725   0.74627   1.000
    O7331   O    0.63917   0.38805   0.74076   1.000
    O7332   O    0.88887   0.62761   0.74699   1.000
    O7333   O    0.64056   0.61260   0.74138   1.000
    O7334   O    0.38677   0.63756   0.74206   1.000
    O7335   O    0.39292   0.35284   0.74250   1.000
    O7336   O    0.13881   0.11373   0.74217   1.000
    O7337   O    0.36183   0.38836   0.74268   1.000
    O7338   O    0.10995   0.62834   0.74846   1.000
    O7339   O    0.11304   0.37234   0.74852   1.000
    O7340   O    0.60523   0.63542   0.74823   1.000
    O7341   O    0.89377   0.13781   0.74887   1.000
    O7342   O    0.13847   0.39455   0.74909   1.000
    O7343   O    0.36862   0.90795   0.74369   1.000
    O7344   O    0.87202   0.11197   0.74963   1.000
    O7345   O    0.39154   0.13634   0.74951   1.000
    O7346   O    0.89018   0.87151   0.74934   1.000
    O7347   O    0.36990   0.11042   0.75001   1.000
    O7348   O    0.89168   0.37243   0.74982   1.000
    O7349   O    0.59138   0.86922   0.74447   1.000
    O7350   O    0.10461   0.13780   0.75044   1.000
    O7351   O    0.36217   0.60387   0.75058   1.000
    O7352   O    0.62781   0.38913   0.75042   1.000
    O7353   O    0.62752   0.89101   0.75023   1.000
    O7354   O    0.62825   0.10916   0.75050   1.000
    O7355   O    0.59137   0.12990   0.74500   1.000
    O7356   O    0.39048   0.87191   0.75054   1.000
    O7357   O    0.11179   0.87093   0.75111   1.000
    O7358   O    0.13786   0.89238   0.75126   1.000
    O7359   O    0.86748   0.39604   0.75100   1.000
    O7360   O    0.62933   0.61183   0.75111   1.000
    O7361   O    0.38696   0.62675   0.75233   1.000
    O7362   O    0.12805   0.11345   0.75234   1.000
    O7363   O    0.39453   0.36301   0.75320   1.000
    O7364   O    0.37223   0.38848   0.75338   1.000
    O7365   O    0.36756   0.89666   0.75346   1.000
    O7366   O    0.60295   0.86810   0.75391   1.000
    O7367   O    0.60279   0.13105   0.75458   1.000
    O7368   O    0.86868   0.90785   0.75538   1.000
    O7369   O    0.87923   0.89732   0.75811   1.000
    O7370   O    0.14862   0.61206   0.75614   1.000
    O7371   O    0.13654   0.62097   0.75856   1.000
    O7372   O    0.59107   0.36835   0.75591   1.000
    O7373   O    0.60177   0.37857   0.75891   1.000
    O7374   O    0.85219   0.60845   0.75698   1.000
    O7375   O    0.86350   0.61845   0.75850   1.000
    O7376   O    0.88897   0.63784   0.75787   1.000
    O7377   O    0.87668   0.62901   0.75879   1.000
    O7378   O    0.59392   0.63452   0.75798   1.000
    O7379   O    0.60406   0.62352   0.76037   1.000
    O7380   O    0.10947   0.63812   0.75975   1.000
    O7381   O    0.12250   0.63034   0.75981   1.000
    O7382   O    0.11309   0.36191   0.75920   1.000
    O7383   O    0.12496   0.37123   0.76069   1.000
    O7384   O    0.90404   0.13812   0.75975   1.000
    O7385   O    0.89508   0.12604   0.76111   1.000
    O7386   O    0.89052   0.88484   0.75993   1.000
    O7387   O    0.90024   0.87312   0.76025   1.000
    O7388   O    0.14853   0.39290   0.75998   1.000
    O7389   O    0.13767   0.38234   0.76097   1.000
    O7390   O    0.38988   0.14661   0.76008   1.000
    O7391   O    0.37958   0.13555   0.76159   1.000
    O7392   O    0.89102   0.36156   0.76002   1.000
    O7393   O    0.87948   0.37137   0.76171   1.000
    O7394   O    0.87364   0.10224   0.76086   1.000
    O7395   O    0.88422   0.11312   0.76150   1.000
    O7396   O    0.63909   0.88991   0.75967   1.000
    O7397   O    0.62886   0.87906   0.76232   1.000
    O7398   O    0.35967   0.11051   0.76089   1.000
    O7399   O    0.36875   0.12260   0.76186   1.000
    O7400   O    0.61444   0.38952   0.76100   1.000
    O7401   O    0.62635   0.39895   0.76154   1.000
    O7402   O    0.38945   0.86063   0.76031   1.000
    O7403   O    0.37859   0.87097   0.76266   1.000
    O7404   O    0.63966   0.11022   0.76009   1.000
    O7405   O    0.62902   0.12069   0.76304   1.000
    O7406   O    0.09390   0.13741   0.76088   1.000
    O7407   O    0.10364   0.12598   0.76269   1.000
    O7408   O    0.36233   0.59313   0.76106   1.000
    O7409   O    0.37395   0.60262   0.76281   1.000
    O7410   O    0.85722   0.39459   0.76154   1.000
    O7411   O    0.86739   0.38320   0.76228   1.000
    O7412   O    0.62744   0.60155   0.76174   1.000
    O7413   O    0.61610   0.61172   0.76180   1.000
    O7414   O    0.10180   0.87251   0.76205   1.000
    O7415   O    0.11277   0.88297   0.76309   1.000
    O7416   O    0.13799   0.90256   0.76220   1.000
    O7417   O    0.12581   0.89370   0.76316   1.000
    O7418   O    0.12674   0.10373   0.76356   1.000
    O7419   O    0.11536   0.11382   0.76363   1.000
    O7420   O    0.39667   0.62519   0.76355   1.000
    O7421   O    0.38634   0.61406   0.76368   1.000
    O7422   O    0.36714   0.88336   0.76411   1.000
    O7423   O    0.35758   0.89520   0.76436   1.000
    O7424   O    0.40492   0.36315   0.76399   1.000
    O7425   O    0.39566   0.37508   0.76507   1.000
    O7426   O    0.37366   0.39848   0.76432   1.000
    O7427   O    0.38450   0.38781   0.76517   1.000
    O7428   O    0.61657   0.86761   0.76414   1.000
    O7429   O    0.60478   0.85808   0.76482   1.000
    O7430   O    0.61626   0.13163   0.76505   1.000
    O7431   O    0.60400   0.14075   0.76560   1.000
    O7432   O    0.86428   0.63054   0.77114   1.000
    O7433   O    0.89082   0.89878   0.77090   1.000
    O7434   O    0.13532   0.63241   0.77172   1.000
    O7435   O    0.60045   0.38986   0.77198   1.000
    O7436   O    0.13710   0.36985   0.77338   1.000
    O7437   O    0.60228   0.61156   0.77288   1.000
    O7438   O    0.89694   0.11436   0.77384   1.000
    O7439   O    0.36740   0.13509   0.77420   1.000
    O7440   O    0.86723   0.37036   0.77371   1.000
    O7441   O    0.63056   0.86668   0.77469   1.000
    O7442   O    0.10226   0.11422   0.77545   1.000
    O7443   O    0.11391   0.89548   0.77562   1.000
    O7444   O    0.38564   0.60096   0.77558   1.000
    O7445   O    0.36634   0.86975   0.77519   1.000
    O7446   O    0.62974   0.13237   0.77564   1.000
    O7447   O    0.39727   0.38703   0.77746   1.000
    O7448   O    0.89297   0.91142   0.77929   1.000
    O7449   O    0.89992   0.90017   0.78568   1.000
    O7450   O    0.86324   0.64330   0.78388   1.000
    O7451   O    0.85293   0.63202   0.78492   1.000
    O7452   O    0.89804   0.08793   0.78394   1.000
    O7453   O    0.58783   0.39194   0.78044   1.000
    O7454   O    0.59907   0.39871   0.78693   1.000
    O7455   O    0.13602   0.64476   0.78494   1.000
    O7456   O    0.14708   0.63411   0.78513   1.000
    O7457   O    0.58962   0.60947   0.78132   1.000
    O7458   O    0.60076   0.60203   0.78738   1.000
    O7459   O    0.41212   0.60065   0.78540   1.000
    O7460   O    0.10282   0.08776   0.78546   1.000
    O7461   O    0.86608   0.35774   0.78607   1.000
    O7462   O    0.85518   0.36854   0.78629   1.000
    O7463   O    0.08746   0.89602   0.78572   1.000
    O7464   O    0.13754   0.35740   0.78649   1.000
    O7465   O    0.14890   0.36766   0.78688   1.000
    O7466   O    0.90177   0.10203   0.78522   1.000
    O7467   O    0.90616   0.11600   0.78601   1.000
    O7468   O    0.63425   0.85342   0.78624   1.000
    O7469   O    0.64333   0.86572   0.78746   1.000
    O7470   O    0.35499   0.13602   0.78736   1.000
    O7471   O    0.36559   0.14708   0.78743   1.000
    O7472   O    0.39736   0.41358   0.78724   1.000
    O7473   O    0.35366   0.86709   0.78757   1.000
    O7474   O    0.36512   0.85686   0.78786   1.000
    O7475   O    0.64305   0.13423   0.78722   1.000
    O7476   O    0.63123   0.14391   0.78865   1.000
    O7477   O    0.09813   0.10161   0.78671   1.000
    O7478   O    0.09273   0.11525   0.78742   1.000
    O7479   O    0.87179   0.65600   0.78606   1.000
    O7480   O    0.39816   0.59645   0.78679   1.000
    O7481   O    0.38436   0.59154   0.78765   1.000
    O7482   O    0.10150   0.89999   0.78700   1.000
    O7483   O    0.11538   0.90462   0.78782   1.000
    O7484   O    0.40165   0.39960   0.78863   1.000
    O7485   O    0.40662   0.38581   0.78954   1.000
    O7486   O    0.62736   0.83969   0.78803   1.000
    O7487   O    0.12673   0.65681   0.78800   1.000
    O7488   O    0.65645   0.12650   0.78895   1.000
    O7489   O    0.15930   0.62530   0.78862   1.000
    O7490   O    0.87506   0.34539   0.78906   1.000
    O7491   O    0.12791   0.34566   0.78936   1.000
    O7492   O    0.90673   0.08960   0.79650   1.000
    O7493   O    0.86061   0.65304   0.79567   1.000
    O7494   O    0.84142   0.62267   0.78925   1.000
    O7495   O    0.84286   0.37727   0.78975   1.000
    O7496   O    0.34080   0.87521   0.79036   1.000
    O7497   O    0.34295   0.12681   0.79052   1.000
    O7498   O    0.16145   0.37593   0.79055   1.000
    O7499   O    0.37425   0.15942   0.79074   1.000
    O7500   O    0.09421   0.08895   0.79806   1.000
    O7501   O    0.41074   0.59215   0.79811   1.000
    O7502   O    0.13853   0.65419   0.79700   1.000
    O7503   O    0.08909   0.90451   0.79838   1.000
    O7504   O    0.37467   0.84509   0.79126   1.000
    O7505   O    0.63886   0.84324   0.79698   1.000
    O7506   O    0.15619   0.63713   0.79728   1.000
    O7507   O    0.84415   0.63498   0.79730   1.000
    O7508   O    0.86310   0.34786   0.79775   1.000
    O7509   O    0.65405   0.87605   0.79169   1.000
    O7510   O    0.84567   0.36514   0.79808   1.000
    O7511   O    0.65339   0.13781   0.79834   1.000
    O7512   O    0.13964   0.34775   0.79851   1.000
    O7513   O    0.40603   0.41212   0.79983   1.000
    O7514   O    0.15781   0.36416   0.79912   1.000
    O7515   O    0.34385   0.86322   0.79889   1.000
    O7516   O    0.34548   0.13869   0.79934   1.000
    O7517   O    0.36245   0.15636   0.79943   1.000
    O7518   O    0.62162   0.15518   0.79319   1.000
    O7519   O    0.90618   0.88876   0.79247   1.000
    O7520   O    0.90880   0.90148   0.80062   1.000
    O7521   O    0.65338   0.86289   0.79898   1.000
    O7522   O    0.36218   0.84687   0.79939   1.000
    O7523   O    0.61048   0.40482   0.79377   1.000
    O7524   O    0.61209   0.59531   0.79386   1.000
    O7525   O    0.59780   0.40732   0.80207   1.000
    O7526   O    0.59941   0.59250   0.80198   1.000
    O7527   O    0.63444   0.15324   0.80057   1.000
    O7528   O    0.91275   0.06207   0.80119   1.000
    O7529   O    0.91308   0.93049   0.80269   1.000
    O7530   O    0.43840   0.58664   0.80267   1.000
    O7531   O    0.08962   0.06114   0.80279   1.000
    O7532   O    0.06149   0.90987   0.80335   1.000
    O7533   O    0.57033   0.58881   0.80424   1.000
    O7534   O    0.41159   0.43976   0.80431   1.000
    O7535   O    0.56869   0.41094   0.80479   1.000
    O7536   O    0.84895   0.64781   0.80373   1.000
    O7537   O    0.85525   0.66467   0.81227   1.000
    O7538   O    0.65051   0.84916   0.80467   1.000
    O7539   O    0.64626   0.83112   0.81209   1.000
    O7540   O    0.15087   0.64939   0.80439   1.000
    O7541   O    0.14376   0.66566   0.81375   1.000
    O7542   O    0.83352   0.64043   0.81414   1.000
    O7543   O    0.16715   0.64280   0.81395   1.000
    O7544   O    0.85063   0.35254   0.80493   1.000
    O7545   O    0.85745   0.33594   0.81404   1.000
    O7546   O    0.91340   0.07647   0.80577   1.000
    O7547   O    0.91480   0.09206   0.81215   1.000
    O7548   O    0.83423   0.35908   0.81429   1.000
    O7549   O    0.66569   0.85724   0.81501   1.000
    O7550   O    0.64795   0.14941   0.80634   1.000
    O7551   O    0.66569   0.14446   0.81415   1.000
    O7552   O    0.34919   0.85090   0.80600   1.000
    O7553   O    0.33224   0.85636   0.81472   1.000
    O7554   O    0.15203   0.35201   0.80609   1.000
    O7555   O    0.14429   0.33609   0.81530   1.000
    O7556   O    0.35659   0.83475   0.81557   1.000
    O7557   O    0.16845   0.35804   0.81597   1.000
    O7558   O    0.08842   0.07549   0.80741   1.000
    O7559   O    0.08654   0.09100   0.81387   1.000
    O7560   O    0.35019   0.15111   0.80657   1.000
    O7561   O    0.33390   0.14404   0.81595   1.000
    O7562   O    0.42406   0.58598   0.80742   1.000
    O7563   O    0.40855   0.58467   0.81402   1.000
    O7564   O    0.35655   0.16750   0.81595   1.000
    O7565   O    0.91945   0.06314   0.81454   1.000
    O7566   O    0.07592   0.91073   0.80783   1.000
    O7567   O    0.09154   0.91230   0.81413   1.000
    O7568   O    0.64023   0.16498   0.81634   1.000
    O7569   O    0.41236   0.42538   0.80903   1.000
    O7570   O    0.41382   0.40982   0.81559   1.000
    O7571   O    0.43754   0.58044   0.81628   1.000
    O7572   O    0.08319   0.06191   0.81627   1.000
    O7573   O    0.91370   0.91651   0.80874   1.000
    O7574   O    0.91862   0.93084   0.81652   1.000
    O7575   O    0.91534   0.90162   0.81667   1.000
    O7576   O    0.06258   0.91634   0.81678   1.000
    O7577   O    0.41813   0.43877   0.81775   1.000
    O7578   O    0.58437   0.58751   0.81004   1.000
    O7579   O    0.59930   0.58509   0.81766   1.000
    O7580   O    0.57003   0.58252   0.81777   1.000
    O7581   O    0.58278   0.41189   0.81051   1.000
    O7582   O    0.59777   0.41385   0.81811   1.000
    O7583   O    0.56848   0.41650   0.81860   1.000
    O7584   O    0.91645   0.10543   0.81920   1.000
    O7585   O    0.92228   0.09431   0.82730   1.000
    O7586   O    0.64591   0.81193   0.83068   1.000
    O7587   O    0.08457   0.10428   0.82100   1.000
    O7588   O    0.10496   0.91407   0.82114   1.000
    O7589   O    0.39527   0.58321   0.82126   1.000
    O7590   O    0.07941   0.09293   0.82917   1.000
    O7591   O    0.09383   0.91954   0.82937   1.000
    O7592   O    0.85568   0.68434   0.83103   1.000
    O7593   O    0.40652   0.57782   0.82946   1.000
    O7594   O    0.92503   0.05199   0.82288   1.000
    O7595   O    0.92686   0.06538   0.82968   1.000
    O7596   O    0.41546   0.39648   0.82280   1.000
    O7597   O    0.68565   0.14560   0.83276   1.000
    O7598   O    0.42110   0.40764   0.83083   1.000
    O7599   O    0.15736   0.67564   0.82609   1.000
    O7600   O    0.14408   0.68482   0.83342   1.000
    O7601   O    0.14990   0.66803   0.83359   1.000
    O7602   O    0.84362   0.32580   0.82602   1.000
    O7603   O    0.85677   0.31623   0.83319   1.000
    O7604   O    0.85111   0.33326   0.83365   1.000
    O7605   O    0.18653   0.64240   0.83288   1.000
    O7606   O    0.81482   0.35925   0.83317   1.000
    O7607   O    0.31263   0.85624   0.83320   1.000
    O7608   O    0.92333   0.94289   0.82409   1.000
    O7609   O    0.81535   0.64031   0.83435   1.000
    O7610   O    0.07823   0.05054   0.82467   1.000
    O7611   O    0.07601   0.06384   0.83152   1.000
    O7612   O    0.44882   0.57529   0.82472   1.000
    O7613   O    0.43551   0.57361   0.83170   1.000
    O7614   O    0.92520   0.93023   0.83220   1.000
    O7615   O    0.67703   0.84390   0.82743   1.000
    O7616   O    0.66748   0.85025   0.83371   1.000
    O7617   O    0.68462   0.85726   0.83491   1.000
    O7618   O    0.91733   0.88899   0.82480   1.000
    O7619   O    0.92190   0.90105   0.83234   1.000
    O7620   O    0.14273   0.31643   0.83410   1.000
    O7621   O    0.05143   0.92156   0.82527   1.000
    O7622   O    0.06486   0.92353   0.83199   1.000
    O7623   O    0.34304   0.82386   0.82767   1.000
    O7624   O    0.35626   0.81526   0.83502   1.000
    O7625   O    0.34997   0.83202   0.83504   1.000
    O7626   O    0.55796   0.57775   0.82526   1.000
    O7627   O    0.35666   0.18704   0.83470   1.000
    O7628   O    0.61197   0.58232   0.82548   1.000
    O7629   O    0.59991   0.57766   0.83296   1.000
    O7630   O    0.32369   0.15774   0.82810   1.000
    O7631   O    0.31459   0.14441   0.83547   1.000
    O7632   O    0.33130   0.15037   0.83572   1.000
    O7633   O    0.57067   0.57513   0.83310   1.000
    O7634   O    0.65382   0.17658   0.82618   1.000
    O7635   O    0.64028   0.18444   0.83517   1.000
    O7636   O    0.17011   0.35155   0.83583   1.000
    O7637   O    0.18714   0.35663   0.83596   1.000
    O7638   O    0.42350   0.44997   0.82608   1.000
    O7639   O    0.42540   0.43659   0.83295   1.000
    O7640   O    0.61048   0.41613   0.82599   1.000
    O7641   O    0.59846   0.42044   0.83376   1.000
    O7642   O    0.55647   0.42097   0.82639   1.000
    O7643   O    0.56922   0.42313   0.83423   1.000
    O7644   O    0.82371   0.67167   0.84320   1.000
    O7645   O    0.17597   0.32625   0.84513   1.000
    O7646   O    0.62666   0.78771   0.83824   1.000
    O7647   O    0.87351   0.70987   0.83804   1.000
    O7648   O    0.92829   0.08096   0.83606   1.000
    O7649   O    0.92879   0.09533   0.84075   1.000
    O7650   O    0.21200   0.62434   0.84019   1.000
    O7651   O    0.28752   0.87479   0.84060   1.000
    O7652   O    0.12363   0.29162   0.84094   1.000
    O7653   O    0.93401   0.06730   0.84557   1.000
    O7654   O    0.79005   0.37775   0.84133   1.000
    O7655   O    0.07411   0.07935   0.83797   1.000
    O7656   O    0.07318   0.09369   0.84273   1.000
    O7657   O    0.08048   0.92515   0.83828   1.000
    O7658   O    0.09489   0.92585   0.84288   1.000
    O7659   O    0.42000   0.57228   0.83829   1.000
    O7660   O    0.40568   0.57185   0.84316   1.000
    O7661   O    0.37457   0.21254   0.84193   1.000
    O7662   O    0.87304   0.29000   0.84217   1.000
    O7663   O    0.42690   0.42102   0.83947   1.000
    O7664   O    0.42746   0.40668   0.84434   1.000
    O7665   O    0.12748   0.71060   0.84296   1.000
    O7666   O    0.06870   0.06556   0.84736   1.000
    O7667   O    0.43374   0.56686   0.84779   1.000
    O7668   O    0.71033   0.12752   0.84298   1.000
    O7669   O    0.06688   0.93058   0.84789   1.000
    O7670   O    0.92685   0.91533   0.84008   1.000
    O7671   O    0.93234   0.92977   0.84824   1.000
    O7672   O    0.92768   0.90143   0.84612   1.000
    O7673   O    0.43258   0.43464   0.84881   1.000
    O7674   O    0.37305   0.78962   0.84453   1.000
    O7675   O    0.58561   0.57269   0.84068   1.000
    O7676   O    0.59956   0.57121   0.84644   1.000
    O7677   O    0.70992   0.87418   0.84480   1.000
    O7678   O    0.86188   0.70115   0.84169   1.000
    O7679   O    0.84992   0.69398   0.84757   1.000
    O7680   O    0.28894   0.12770   0.84487   1.000
    O7681   O    0.79155   0.62214   0.84475   1.000
    O7682   O    0.57109   0.56743   0.84891   1.000
    O7683   O    0.63813   0.79651   0.84221   1.000
    O7684   O    0.64970   0.80397   0.84852   1.000
    O7685   O    0.58421   0.42512   0.84179   1.000
    O7686   O    0.59820   0.42625   0.84750   1.000
    O7687   O    0.21307   0.37223   0.84599   1.000
    O7688   O    0.56981   0.43042   0.85021   1.000
    O7689   O    0.20340   0.63620   0.84352   1.000
    O7690   O    0.19646   0.64849   0.84898   1.000
    O7691   O    0.62100   0.20720   0.84588   1.000
    O7692   O    0.86538   0.71328   0.85070   1.000
    O7693   O    0.29605   0.86287   0.84398   1.000
    O7694   O    0.30303   0.85060   0.84956   1.000
    O7695   O    0.70196   0.13990   0.84480   1.000
    O7696   O    0.69523   0.15286   0.84878   1.000
    O7697   O    0.79831   0.36552   0.84422   1.000
    O7698   O    0.80501   0.35290   0.84932   1.000
    O7699   O    0.86141   0.29920   0.84474   1.000
    O7700   O    0.84916   0.30675   0.84951   1.000
    O7701   O    0.63335   0.78555   0.85205   1.000
    O7702   O    0.13580   0.29961   0.84450   1.000
    O7703   O    0.14832   0.30595   0.85017   1.000
    O7704   O    0.13921   0.70143   0.84539   1.000
    O7705   O    0.15155   0.69389   0.85004   1.000
    O7706   O    0.83211   0.66473   0.85046   1.000
    O7707   O    0.88984   0.74072   0.85053   1.000
    O7708   O    0.36269   0.20400   0.84523   1.000
    O7709   O    0.35040   0.19707   0.85069   1.000
    O7710   O    0.21560   0.63287   0.85253   1.000
    O7711   O    0.79975   0.63457   0.84676   1.000
    O7712   O    0.80636   0.64753   0.85101   1.000
    O7713   O    0.63433   0.20037   0.84704   1.000
    O7714   O    0.64832   0.19537   0.85014   1.000
    O7715   O    0.66790   0.17168   0.84958   1.000
    O7716   O    0.36117   0.79854   0.84688   1.000
    O7717   O    0.34867   0.80583   0.85143   1.000
    O7718   O    0.28413   0.86644   0.85318   1.000
    O7719   O    0.70099   0.86233   0.84709   1.000
    O7720   O    0.69361   0.84989   0.85163   1.000
    O7721   O    0.13191   0.28743   0.85339   1.000
    O7722   O    0.29794   0.13949   0.84731   1.000
    O7723   O    0.30527   0.15191   0.85194   1.000
    O7724   O    0.78640   0.36896   0.85350   1.000
    O7725   O    0.20362   0.36079   0.84820   1.000
    O7726   O    0.19565   0.34870   0.85268   1.000
    O7727   O    0.86376   0.28698   0.85413   1.000
    O7728   O    0.36590   0.21628   0.85412   1.000
    O7729   O    0.71384   0.13720   0.85453   1.000
    O7730   O    0.38979   0.24413   0.85362   1.000
    O7731   O    0.13675   0.71337   0.85502   1.000
    O7732   O    0.10586   0.26240   0.85376   1.000
    O7733   O    0.24136   0.60668   0.85429   1.000
    O7734   O    0.75987   0.39445   0.85483   1.000
    O7735   O    0.60495   0.76234   0.85480   1.000
    O7736   O    0.36371   0.78649   0.85642   1.000
    O7737   O    0.78840   0.63125   0.85671   1.000
    O7738   O    0.71276   0.86493   0.85691   1.000
    O7739   O    0.28592   0.13695   0.85684   1.000
    O7740   O    0.25898   0.89316   0.85527   1.000
    O7741   O    0.63105   0.21222   0.85643   1.000
    O7742   O    0.21542   0.36289   0.85810   1.000
    O7743   O    0.74105   0.11225   0.85885   1.000
    O7744   O    0.88932   0.26052   0.85916   1.000
    O7745   O    0.68678   0.17021   0.85443   1.000
    O7746   O    0.66689   0.18865   0.85477   1.000
    O7747   O    0.93418   0.05541   0.85841   1.000
    O7748   O    0.94591   0.06762   0.85853   1.000
    O7749   O    0.83422   0.68450   0.85580   1.000
    O7750   O    0.84576   0.70132   0.86011   1.000
    O7751   O    0.73993   0.88957   0.86097   1.000
    O7752   O    0.70259   0.15842   0.86079   1.000
    O7753   O    0.38901   0.75980   0.86080   1.000
    O7754   O    0.65398   0.20385   0.86131   1.000
    O7755   O    0.18742   0.66475   0.85640   1.000
    O7756   O    0.20400   0.65302   0.86128   1.000
    O7757   O    0.81384   0.33633   0.85643   1.000
    O7758   O    0.79758   0.34828   0.86165   1.000
    O7759   O    0.83273   0.31654   0.85645   1.000
    O7760   O    0.84372   0.29956   0.86170   1.000
    O7761   O    0.05668   0.06581   0.86004   1.000
    O7762   O    0.06843   0.05357   0.86018   1.000
    O7763   O    0.66485   0.81383   0.85714   1.000
    O7764   O    0.65234   0.79795   0.86215   1.000
    O7765   O    0.11039   0.73868   0.86153   1.000
    O7766   O    0.92404   0.04435   0.85945   1.000
    O7767   O    0.31231   0.83450   0.85733   1.000
    O7768   O    0.29577   0.84633   0.86211   1.000
    O7769   O    0.93276   0.94265   0.86016   1.000
    O7770   O    0.94452   0.93044   0.86073   1.000
    O7771   O    0.16817   0.68419   0.85682   1.000
    O7772   O    0.15692   0.70081   0.86241   1.000
    O7773   O    0.44576   0.56687   0.86052   1.000
    O7774   O    0.43344   0.55527   0.86096   1.000
    O7775   O    0.95671   0.07807   0.85968   1.000
    O7776   O    0.06719   0.94246   0.86079   1.000
    O7777   O    0.05516   0.93055   0.86084   1.000
    O7778   O    0.90204   0.76220   0.86068   1.000
    O7779   O    0.16489   0.31415   0.85803   1.000
    O7780   O    0.15246   0.29806   0.86245   1.000
    O7781   O    0.24247   0.38743   0.86300   1.000
    O7782   O    0.55832   0.56715   0.86090   1.000
    O7783   O    0.57020   0.55504   0.86127   1.000
    O7784   O    0.89182   0.75128   0.86081   1.000
    O7785   O    0.87985   0.73921   0.86184   1.000
    O7786   O    0.81540   0.66461   0.85720   1.000
    O7787   O    0.79935   0.65250   0.86346   1.000
    O7788   O    0.33413   0.18802   0.85813   1.000
    O7789   O    0.34574   0.20472   0.86287   1.000
    O7790   O    0.26066   0.11050   0.86275   1.000
    O7791   O    0.44462   0.43429   0.86153   1.000
    O7792   O    0.43269   0.44636   0.86170   1.000
    O7793   O    0.92266   0.95383   0.86072   1.000
    O7794   O    0.04583   0.07624   0.86090   1.000
    O7795   O    0.33181   0.81522   0.85802   1.000
    O7796   O    0.34328   0.79864   0.86364   1.000
    O7797   O    0.45694   0.57691   0.86127   1.000
    O7798   O    0.68406   0.83319   0.85816   1.000
    O7799   O    0.70048   0.84458   0.86409   1.000
    O7800   O    0.31477   0.16864   0.85863   1.000
    O7801   O    0.29815   0.15727   0.86419   1.000
    O7802   O    0.07857   0.04245   0.86144   1.000
    O7803   O    0.55707   0.43084   0.86236   1.000
    O7804   O    0.56916   0.44271   0.86258   1.000
    O7805   O    0.07748   0.95340   0.86177   1.000
    O7806   O    0.54745   0.57758   0.86169   1.000
    O7807   O    0.85529   0.71339   0.86222   1.000
    O7808   O    0.86765   0.72659   0.86262   1.000
    O7809   O    0.04425   0.92026   0.86202   1.000
    O7810   O    0.18516   0.33250   0.85911   1.000
    O7811   O    0.20217   0.34311   0.86520   1.000
    O7812   O    0.45558   0.42396   0.86238   1.000
    O7813   O    0.95539   0.92011   0.86215   1.000
    O7814   O    0.42292   0.54460   0.86235   1.000
    O7815   O    0.58026   0.54386   0.86257   1.000
    O7816   O    0.40177   0.26574   0.86370   1.000
    O7817   O    0.42240   0.45730   0.86296   1.000
    O7818   O    0.10404   0.25156   0.86379   1.000
    O7819   O    0.11679   0.26290   0.86438   1.000
    O7820   O    0.54598   0.42067   0.86325   1.000
    O7821   O    0.39166   0.25473   0.86387   1.000
    O7822   O    0.37981   0.24256   0.86494   1.000
    O7823   O    0.25249   0.60542   0.86411   1.000
    O7824   O    0.24101   0.61802   0.86437   1.000
    O7825   O    0.21597   0.64338   0.86366   1.000
    O7826   O    0.22901   0.63088   0.86438   1.000
    O7827   O    0.09319   0.24125   0.86403   1.000
    O7828   O    0.57936   0.45371   0.86370   1.000
    O7829   O    0.60114   0.23137   0.86524   1.000
    O7830   O    0.64224   0.78644   0.86453   1.000
    O7831   O    0.62955   0.77367   0.86504   1.000
    O7832   O    0.60286   0.75173   0.86508   1.000
    O7833   O    0.61602   0.76252   0.86521   1.000
    O7834   O    0.28394   0.85609   0.86452   1.000
    O7835   O    0.27100   0.86868   0.86523   1.000
    O7836   O    0.14232   0.28647   0.86462   1.000
    O7837   O    0.12959   0.27433   0.86497   1.000
    O7838   O    0.24794   0.89449   0.86511   1.000
    O7839   O    0.25923   0.88173   0.86531   1.000
    O7840   O    0.74955   0.39630   0.86536   1.000
    O7841   O    0.76113   0.38377   0.86559   1.000
    O7842   O    0.78593   0.35818   0.86440   1.000
    O7843   O    0.77327   0.37103   0.86561   1.000
    O7844   O    0.26298   0.59472   0.86462   1.000
    O7845   O    0.35530   0.21674   0.86515   1.000
    O7846   O    0.36775   0.22983   0.86577   1.000
    O7847   O    0.85271   0.28722   0.86471   1.000
    O7848   O    0.86444   0.27363   0.86638   1.000
    O7849   O    0.71421   0.14880   0.86451   1.000
    O7850   O    0.72702   0.13634   0.86699   1.000
    O7851   O    0.59166   0.74182   0.86573   1.000
    O7852   O    0.23761   0.90533   0.86566   1.000
    O7853   O    0.73904   0.40697   0.86594   1.000
    O7854   O    0.93370   0.04387   0.87102   1.000
    O7855   O    0.95731   0.06835   0.87126   1.000
    O7856   O    0.14782   0.71297   0.86564   1.000
    O7857   O    0.13604   0.72642   0.86751   1.000
    O7858   O    0.77070   0.60097   0.86731   1.000
    O7859   O    0.64332   0.21440   0.86537   1.000
    O7860   O    0.62933   0.22552   0.86827   1.000
    O7861   O    0.93262   0.95488   0.87205   1.000
    O7862   O    0.04510   0.06665   0.87253   1.000
    O7863   O    0.35254   0.78656   0.86688   1.000
    O7864   O    0.36457   0.77327   0.86876   1.000
    O7865   O    0.06871   0.04205   0.87283   1.000
    O7866   O    0.89341   0.76297   0.87305   1.000
    O7867   O    0.45736   0.56747   0.87304   1.000
    O7868   O    0.78812   0.64244   0.86714   1.000
    O7869   O    0.77604   0.62921   0.86941   1.000
    O7870   O    0.28606   0.14805   0.86736   1.000
    O7871   O    0.27271   0.13609   0.86915   1.000
    O7872   O    0.54618   0.56751   0.87289   1.000
    O7873   O    0.87693   0.26123   0.86786   1.000
    O7874   O    0.88919   0.24940   0.86917   1.000
    O7875   O    0.71244   0.85384   0.86752   1.000
    O7876   O    0.72558   0.86592   0.86964   1.000
    O7877   O    0.73952   0.12393   0.86837   1.000
    O7878   O    0.75161   0.11189   0.86944   1.000
    O7879   O    0.06794   0.95389   0.87343   1.000
    O7880   O    0.95622   0.93031   0.87317   1.000
    O7881   O    0.04381   0.92992   0.87355   1.000
    O7882   O    0.43261   0.54416   0.87392   1.000
    O7883   O    0.57006   0.54319   0.87361   1.000
    O7884   O    0.45613   0.43340   0.87411   1.000
    O7885   O    0.84374   0.71022   0.87200   1.000
    O7886   O    0.43214   0.45760   0.87447   1.000
    O7887   O    0.21452   0.35186   0.86871   1.000
    O7888   O    0.22820   0.36344   0.87086   1.000
    O7889   O    0.54496   0.43077   0.87441   1.000
    O7890   O    0.86939   0.73890   0.87506   1.000
    O7891   O    0.56926   0.45460   0.87481   1.000
    O7892   O    0.37702   0.76085   0.87003   1.000
    O7893   O    0.38922   0.74894   0.87107   1.000
    O7894   O    0.71140   0.16181   0.87239   1.000
    O7895   O    0.21304   0.65534   0.87304   1.000
    O7896   O    0.12328   0.73840   0.86955   1.000
    O7897   O    0.11074   0.74982   0.87146   1.000
    O7898   O    0.65708   0.21347   0.87242   1.000
    O7899   O    0.73815   0.87816   0.87083   1.000
    O7900   O    0.75015   0.89020   0.87183   1.000
    O7901   O    0.78865   0.34588   0.87346   1.000
    O7902   O    0.84049   0.29078   0.87342   1.000
    O7903   O    0.10270   0.23940   0.87564   1.000
    O7904   O    0.39313   0.26647   0.87605   1.000
    O7905   O    0.28700   0.84425   0.87408   1.000
    O7906   O    0.26482   0.60469   0.87579   1.000
    O7907   O    0.76264   0.10189   0.87091   1.000
    O7908   O    0.15443   0.28880   0.87406   1.000
    O7909   O    0.89939   0.23859   0.87082   1.000
    O7910   O    0.26076   0.12325   0.87092   1.000
    O7911   O    0.24935   0.11068   0.87249   1.000
    O7912   O    0.65283   0.79038   0.87512   1.000
    O7913   O    0.16005   0.70930   0.87434   1.000
    O7914   O    0.24196   0.62998   0.87625   1.000
    O7915   O    0.34325   0.21392   0.87444   1.000
    O7916   O    0.12811   0.26207   0.87692   1.000
    O7917   O    0.23568   0.89529   0.87681   1.000
    O7918   O    0.60133   0.73990   0.87720   1.000
    O7919   O    0.24086   0.37555   0.87235   1.000
    O7920   O    0.25298   0.38747   0.87358   1.000
    O7921   O    0.25817   0.86969   0.87716   1.000
    O7922   O    0.62751   0.76160   0.87760   1.000
    O7923   O    0.73803   0.39759   0.87775   1.000
    O7924   O    0.34010   0.78986   0.87538   1.000
    O7925   O    0.39937   0.73808   0.87251   1.000
    O7926   O    0.79086   0.65502   0.87564   1.000
    O7927   O    0.36931   0.24223   0.87815   1.000
    O7928   O    0.61467   0.23462   0.87136   1.000
    O7929   O    0.60026   0.24329   0.87405   1.000
    O7930   O    0.76125   0.37261   0.87831   1.000
    O7931   O    0.28943   0.16039   0.87597   1.000
    O7932   O    0.70896   0.84144   0.87607   1.000
    O7933   O    0.76077   0.90050   0.87354   1.000
    O7934   O    0.86365   0.26066   0.87825   1.000
    O7935   O    0.10031   0.76028   0.87361   1.000
    O7936   O    0.21039   0.33969   0.87732   1.000
    O7937   O    0.76710   0.61461   0.87287   1.000
    O7938   O    0.75851   0.60024   0.87583   1.000
    O7939   O    0.73916   0.13641   0.87971   1.000
    O7940   O    0.23890   0.10021   0.87432   1.000
    O7941   O    0.13713   0.73942   0.87920   1.000
    O7942   O    0.26400   0.39737   0.87519   1.000
    O7943   O    0.62896   0.23937   0.87906   1.000
    O7944   O    0.36421   0.76066   0.88101   1.000
    O7945   O    0.88820   0.23711   0.88098   1.000
    O7946   O    0.25955   0.13692   0.88074   1.000
    O7947   O    0.76329   0.11237   0.88187   1.000
    O7948   O    0.76201   0.62911   0.87994   1.000
    O7949   O    0.73738   0.86609   0.88267   1.000
    O7950   O    0.38863   0.73696   0.88319   1.000
    O7951   O    0.58806   0.25148   0.87694   1.000
    O7952   O    0.24045   0.36284   0.88351   1.000
    O7953   O    0.11202   0.76213   0.88315   1.000
    O7954   O    0.76140   0.89009   0.88463   1.000
    O7955   O    0.23681   0.11175   0.88398   1.000
    O7956   O    0.75038   0.58808   0.87897   1.000
    O7957   O    0.26458   0.38673   0.88606   1.000
    O7958   O    0.60014   0.25680   0.88427   1.000
    O7959   O    0.90467   0.78740   0.88367   1.000
    O7960   O    0.94501   0.04456   0.88359   1.000
    O7961   O    0.93240   0.03246   0.88425   1.000
    O7962   O    0.95689   0.05683   0.88371   1.000
    O7963   O    0.96875   0.06963   0.88455   1.000
    O7964   O    0.74469   0.60037   0.88565   1.000
    O7965   O    0.82571   0.91833   0.88769   1.000
    O7966   O    0.94424   0.95474   0.88442   1.000
    O7967   O    0.93168   0.96694   0.88475   1.000
    O7968   O    0.79353   0.90657   0.88797   1.000
    O7969   O    0.04534   0.05522   0.88503   1.000
    O7970   O    0.03360   0.06823   0.88559   1.000
    O7971   O    0.54604   0.55574   0.88511   1.000
    O7972   O    0.53425   0.56865   0.88568   1.000
    O7973   O    0.05719   0.04285   0.88518   1.000
    O7974   O    0.06970   0.03061   0.88614   1.000
    O7975   O    0.95608   0.94239   0.88497   1.000
    O7976   O    0.96774   0.92933   0.88625   1.000
    O7977   O    0.45658   0.55641   0.88586   1.000
    O7978   O    0.46888   0.56882   0.88618   1.000
    O7979   O    0.89546   0.77523   0.88511   1.000
    O7980   O    0.88295   0.76268   0.88627   1.000
    O7981   O    0.28960   0.59388   0.88631   1.000
    O7982   O    0.40420   0.29099   0.88661   1.000
    O7983   O    0.55803   0.54354   0.88545   1.000
    O7984   O    0.57072   0.53152   0.88667   1.000
    O7985   O    0.05661   0.95333   0.88598   1.000
    O7986   O    0.06930   0.96534   0.88662   1.000
    O7987   O    0.04451   0.94128   0.88605   1.000
    O7988   O    0.03248   0.92859   0.88681   1.000
    O7989   O    0.92000   0.02147   0.88569   1.000
    O7990   O    0.90483   0.00922   0.88762   1.000
    O7991   O    0.44416   0.54470   0.88629   1.000
    O7992   O    0.43117   0.53305   0.88740   1.000
    O7993   O    0.91947   0.97829   0.88587   1.000
    O7994   O    0.90459   0.99090   0.88768   1.000
    O7995   O    0.54508   0.44258   0.88654   1.000
    O7996   O    0.53295   0.43003   0.88726   1.000
    O7997   O    0.45564   0.44461   0.88674   1.000
    O7998   O    0.46756   0.43181   0.88731   1.000
    O7999   O    0.21103   0.90624   0.88728   1.000
    O8000   O    0.97984   0.08201   0.88610   1.000
    O8001   O    0.99241   0.09682   0.88823   1.000
    O8002   O    0.55730   0.45454   0.88672   1.000
    O8003   O    0.57017   0.46638   0.88766   1.000
    O8004   O    0.44358   0.45674   0.88693   1.000
    O8005   O    0.43085   0.46872   0.88787   1.000
    O8006   O    0.02281   0.08091   0.88688   1.000
    O8007   O    0.01069   0.09632   0.88858   1.000
    O8008   O    0.87089   0.75068   0.88726   1.000
    O8009   O    0.86064   0.73984   0.88740   1.000
    O8010   O    0.52321   0.58111   0.88696   1.000
    O8011   O    0.51091   0.59618   0.88892   1.000
    O8012   O    0.27769   0.60351   0.88735   1.000
    O8013   O    0.26579   0.61664   0.88767   1.000
    O8014   O    0.10077   0.22684   0.88753   1.000
    O8015   O    0.11400   0.23858   0.88817   1.000
    O8016   O    0.48005   0.58111   0.88742   1.000
    O8017   O    0.49257   0.59615   0.88914   1.000
    O8018   O    0.24406   0.64009   0.88734   1.000
    O8019   O    0.25441   0.62932   0.88787   1.000
    O8020   O    0.39508   0.27877   0.88808   1.000
    O8021   O    0.38264   0.26615   0.88926   1.000
    O8022   O    0.22287   0.89652   0.88835   1.000
    O8023   O    0.23462   0.88326   0.88867   1.000
    O8024   O    0.08196   0.01937   0.88792   1.000
    O8025   O    0.09692   0.00676   0.89028   1.000
    O8026   O    0.97859   0.91680   0.88800   1.000
    O8027   O    0.99075   0.90150   0.89015   1.000
    O8028   O    0.08181   0.97624   0.88815   1.000
    O8029   O    0.09688   0.98844   0.89035   1.000
    O8030   O    0.25601   0.85951   0.88823   1.000
    O8031   O    0.24583   0.87043   0.88882   1.000
    O8032   O    0.02148   0.91617   0.88833   1.000
    O8033   O    0.00899   0.90122   0.89027   1.000
    O8034   O    0.13743   0.26013   0.88883   1.000
    O8035   O    0.12667   0.24992   0.88887   1.000
    O8036   O    0.64101   0.24463   0.88660   1.000
    O8037   O    0.62882   0.25283   0.88944   1.000
    O8038   O    0.59938   0.72753   0.88924   1.000
    O8039   O    0.61282   0.73899   0.88959   1.000
    O8040   O    0.58298   0.52035   0.88850   1.000
    O8041   O    0.59793   0.50788   0.89098   1.000
    O8042   O    0.52152   0.41790   0.88877   1.000
    O8043   O    0.50871   0.40324   0.89101   1.000
    O8044   O    0.47835   0.41915   0.88885   1.000
    O8045   O    0.49035   0.40378   0.89105   1.000
    O8046   O    0.85227   0.25887   0.88812   1.000
    O8047   O    0.86262   0.24829   0.88994   1.000
    O8048   O    0.75649   0.64138   0.88687   1.000
    O8049   O    0.74825   0.62922   0.88991   1.000
    O8050   O    0.63703   0.75973   0.88929   1.000
    O8051   O    0.62585   0.74990   0.88986   1.000
    O8052   O    0.58261   0.47734   0.88923   1.000
    O8053   O    0.59777   0.48960   0.89130   1.000
    O8054   O    0.41851   0.52240   0.88923   1.000
    O8055   O    0.40336   0.51031   0.89156   1.000
    O8056   O    0.72613   0.39946   0.89017   1.000
    O8057   O    0.73814   0.38643   0.89047   1.000
    O8058   O    0.14903   0.74162   0.88838   1.000
    O8059   O    0.13846   0.75182   0.89075   1.000
    O8060   O    0.41838   0.47966   0.88960   1.000
    O8061   O    0.40332   0.49211   0.89172   1.000
    O8062   O    0.37066   0.25408   0.89028   1.000
    O8063   O    0.36051   0.24314   0.89045   1.000
    O8064   O    0.08839   0.21785   0.88900   1.000
    O8065   O    0.76031   0.36338   0.89034   1.000
    O8066   O    0.74979   0.37397   0.89080   1.000
    O8067   O    0.91475   0.82050   0.89424   1.000
    O8068   O    0.74004   0.14700   0.89054   1.000
    O8069   O    0.75087   0.13688   0.89210   1.000
    O8070   O    0.95547   0.04618   0.89430   1.000
    O8071   O    0.25718   0.14864   0.89007   1.000
    O8072   O    0.24694   0.13803   0.89211   1.000
    O8073   O    0.87491   0.23657   0.89136   1.000
    O8074   O    0.88704   0.22430   0.89328   1.000
    O8075   O    0.90015   0.78650   0.89757   1.000
    O8076   O    0.95492   0.95350   0.89502   1.000
    O8077   O    0.35327   0.75923   0.89144   1.000
    O8078   O    0.36358   0.74858   0.89303   1.000
    O8079   O    0.58686   0.71887   0.89108   1.000
    O8080   O    0.93083   0.02145   0.89667   1.000
    O8081   O    0.32323   0.58557   0.89657   1.000
    O8082   O    0.04658   0.04463   0.89570   1.000
    O8083   O    0.54699   0.54490   0.89556   1.000
    O8084   O    0.93030   0.97825   0.89686   1.000
    O8085   O    0.97964   0.07115   0.89707   1.000
    O8086   O    0.71703   0.41173   0.89188   1.000
    O8087   O    0.41378   0.32421   0.89718   1.000
    O8088   O    0.76290   0.12487   0.89319   1.000
    O8089   O    0.77559   0.11312   0.89471   1.000
    O8090   O    0.17723   0.91402   0.89732   1.000
    O8091   O    0.04614   0.95179   0.89667   1.000
    O8092   O    0.61442   0.26159   0.89196   1.000
    O8093   O    0.59940   0.27065   0.89456   1.000
    O8094   O    0.45484   0.54618   0.89681   1.000
    O8095   O    0.78651   0.08688   0.89426   1.000
    O8096   O    0.02256   0.07007   0.89786   1.000
    O8097   O    0.52314   0.57027   0.89793   1.000
    O8098   O    0.12588   0.76311   0.89279   1.000
    O8099   O    0.11347   0.77494   0.89536   1.000
    O8100   O    0.54630   0.45345   0.89689   1.000
    O8101   O    0.91365   0.21441   0.89415   1.000
    O8102   O    0.48003   0.57029   0.89842   1.000
    O8103   O    0.73784   0.85592   0.89397   1.000
    O8104   O    0.74861   0.86605   0.89549   1.000
    O8105   O    0.45414   0.45497   0.89754   1.000
    O8106   O    0.87269   0.76144   0.89740   1.000
    O8107   O    0.37581   0.73678   0.89416   1.000
    O8108   O    0.38790   0.72444   0.89579   1.000
    O8109   O    0.28916   0.59951   0.89981   1.000
    O8110   O    0.07091   0.01964   0.89863   1.000
    O8111   O    0.23562   0.12543   0.89379   1.000
    O8112   O    0.22371   0.11300   0.89594   1.000
    O8113   O    0.73951   0.61486   0.89265   1.000
    O8114   O    0.73047   0.59989   0.89546   1.000
    O8115   O    0.97858   0.92775   0.89882   1.000
    O8116   O    0.09943   0.21222   0.89690   1.000
    O8117   O    0.24132   0.35197   0.89410   1.000
    O8118   O    0.25216   0.36204   0.89589   1.000
    O8119   O    0.07076   0.97651   0.89887   1.000
    O8120   O    0.39975   0.29002   0.90052   1.000
    O8121   O    0.57190   0.52057   0.89918   1.000
    O8122   O    0.26573   0.62818   0.89753   1.000
    O8123   O    0.02148   0.92708   0.89919   1.000
    O8124   O    0.41443   0.71440   0.89574   1.000
    O8125   O    0.21146   0.90054   0.90079   1.000
    O8126   O    0.52174   0.42891   0.89951   1.000
    O8127   O    0.47864   0.43014   0.89961   1.000
    O8128   O    0.42957   0.52225   0.89999   1.000
    O8129   O    0.57151   0.47758   0.89990   1.000
    O8130   O    0.12460   0.23921   0.89904   1.000
    O8131   O    0.23459   0.87167   0.89852   1.000
    O8132   O    0.42941   0.47951   0.90039   1.000
    O8133   O    0.76063   0.87801   0.89646   1.000
    O8134   O    0.77301   0.89001   0.89805   1.000
    O8135   O    0.89191   0.00938   0.90033   1.000
    O8136   O    0.89187   0.99115   0.90048   1.000
    O8137   O    0.59810   0.71291   0.89848   1.000
    O8138   O    0.21423   0.08623   0.89709   1.000
    O8139   O    0.99253   0.10955   0.90114   1.000
    O8140   O    0.01085   0.10933   0.90119   1.000
    O8141   O    0.62780   0.26464   0.89850   1.000
    O8142   O    0.62360   0.73950   0.90032   1.000
    O8143   O    0.37236   0.26490   0.90036   1.000
    O8144   O    0.26416   0.37401   0.89722   1.000
    O8145   O    0.27670   0.38590   0.89901   1.000
    O8146   O    0.08669   0.78409   0.89744   1.000
    O8147   O    0.73611   0.62842   0.89858   1.000
    O8148   O    0.71196   0.40071   0.90011   1.000
    O8149   O    0.86248   0.23712   0.89992   1.000
    O8150   O    0.49279   0.60917   0.90173   1.000
    O8151   O    0.51099   0.60887   0.90183   1.000
    O8152   O    0.73957   0.37598   0.90145   1.000
    O8153   O    0.83344   0.92281   0.89967   1.000
    O8154   O    0.81794   0.91590   0.90041   1.000
    O8155   O    0.13881   0.76299   0.90065   1.000
    O8156   O    0.78748   0.89956   0.89931   1.000
    O8157   O    0.80207   0.90898   0.90049   1.000
    O8158   O    0.28653   0.41241   0.89929   1.000
    O8159   O    0.99044   0.88856   0.90283   1.000
    O8160   O    0.00869   0.88843   0.90318   1.000
    O8161   O    0.84712   0.92881   0.89991   1.000
    O8162   O    0.10973   0.00667   0.90313   1.000
    O8163   O    0.10921   0.98841   0.90368   1.000
    O8164   O    0.23559   0.13820   0.90183   1.000
    O8165   O    0.50836   0.39062   0.90406   1.000
    O8166   O    0.49005   0.39117   0.90417   1.000
    O8167   O    0.76152   0.13658   0.90260   1.000
    O8168   O    0.61052   0.50798   0.90400   1.000
    O8169   O    0.61037   0.48964   0.90433   1.000
    O8170   O    0.39050   0.49223   0.90458   1.000
    O8171   O    0.39090   0.51052   0.90468   1.000
    O8172   O    0.36379   0.73764   0.90326   1.000
    O8173   O    0.89956   0.21297   0.89791   1.000
    O8174   O    0.91205   0.20169   0.90265   1.000
    O8175   O    0.88562   0.21198   0.90232   1.000
    O8176   O    0.78726   0.10076   0.89890   1.000
    O8177   O    0.79897   0.08850   0.90314   1.000
    O8178   O    0.58655   0.27717   0.89961   1.000
    O8179   O    0.59780   0.28645   0.90149   1.000
    O8180   O    0.78758   0.11439   0.90420   1.000
    O8181   O    0.40051   0.71312   0.90009   1.000
    O8182   O    0.41308   0.70182   0.90447   1.000
    O8183   O    0.92677   0.84211   0.90436   1.000
    O8184   O    0.72392   0.58724   0.90102   1.000
    O8185   O    0.71432   0.59839   0.90157   1.000
    O8186   O    0.75883   0.86677   0.90641   1.000
    O8187   O    0.10090   0.78587   0.90059   1.000
    O8188   O    0.11501   0.78721   0.90435   1.000
    O8189   O    0.70483   0.60953   0.90190   1.000
    O8190   O    0.26280   0.36210   0.90645   1.000
    O8191   O    0.21255   0.10037   0.90063   1.000
    O8192   O    0.20141   0.08777   0.90538   1.000
    O8193   O    0.38677   0.71230   0.90510   1.000
    O8194   O    0.21127   0.11437   0.90478   1.000
    O8195   O    0.08833   0.79676   0.90591   1.000
    O8196   O    0.92027   0.82865   0.90538   1.000
    O8197   O    0.91283   0.81348   0.90762   1.000
    O8198   O    0.60903   0.29564   0.90301   1.000
    O8199   O    0.34492   0.57363   0.90675   1.000
    O8200   O    0.42602   0.34573   0.90720   1.000
    O8201   O    0.11071   0.20616   0.90408   1.000
    O8202   O    0.09824   0.19755   0.90634   1.000
    O8203   O    0.15550   0.92590   0.90732   1.000
    O8204   O    0.28789   0.39844   0.90355   1.000
    O8205   O    0.29911   0.41105   0.90802   1.000
    O8206   O    0.78190   0.89185   0.91044   1.000
    O8207   O    0.69793   0.59697   0.90744   1.000
    O8208   O    0.60954   0.70658   0.90511   1.000
    O8209   O    0.59706   0.69810   0.90764   1.000
    O8210   O    0.28875   0.38461   0.90846   1.000
    O8211   O    0.33145   0.58011   0.90774   1.000
    O8212   O    0.31630   0.58754   0.90994   1.000
    O8213   O    0.59634   0.30250   0.90824   1.000
    O8214   O    0.84143   0.92760   0.91388   1.000
    O8215   O    0.92868   0.00914   0.91177   1.000
    O8216   O    0.92844   0.99080   0.91183   1.000
    O8217   O    0.41961   0.33224   0.90825   1.000
    O8218   O    0.41232   0.31701   0.91053   1.000
    O8219   O    0.99190   0.07292   0.91234   1.000
    O8220   O    0.16903   0.91957   0.90840   1.000
    O8221   O    0.18426   0.91230   0.91072   1.000
    O8222   O    0.01014   0.07244   0.91270   1.000
    O8223   O    0.51078   0.57229   0.91307   1.000
    O8224   O    0.81041   0.91381   0.91539   1.000
    O8225   O    0.70639   0.38943   0.90763   1.000
    O8226   O    0.69767   0.40186   0.90990   1.000
    O8227   O    0.49249   0.57228   0.91331   1.000
    O8228   O    0.80439   0.06091   0.90841   1.000
    O8229   O    0.07259   0.00739   0.91381   1.000
    O8230   O    0.93963   0.19696   0.90849   1.000
    O8231   O    0.07255   0.98907   0.91389   1.000
    O8232   O    0.99074   0.92556   0.91398   1.000
    O8233   O    0.90485   0.79778   0.91002   1.000
    O8234   O    0.89628   0.78514   0.91161   1.000
    O8235   O    0.57353   0.50839   0.91446   1.000
    O8236   O    0.00898   0.92524   0.91414   1.000
    O8237   O    0.69468   0.56772   0.90957   1.000
    O8238   O    0.50928   0.42749   0.91461   1.000
    O8239   O    0.44080   0.69702   0.90947   1.000
    O8240   O    0.49099   0.42802   0.91466   1.000
    O8241   O    0.06920   0.19449   0.90937   1.000
    O8242   O    0.57337   0.49013   0.91478   1.000
    O8243   O    0.42769   0.50997   0.91524   1.000
    O8244   O    0.92524   0.19234   0.90914   1.000
    O8245   O    0.90968   0.18589   0.91048   1.000
    O8246   O    0.88987   0.02178   0.91533   1.000
    O8247   O    0.42763   0.49178   0.91543   1.000
    O8248   O    0.80862   0.07539   0.90938   1.000
    O8249   O    0.81465   0.09110   0.91109   1.000
    O8250   O    0.88977   0.97888   0.91566   1.000
    O8251   O    0.98009   0.11174   0.91614   1.000
    O8252   O    0.30064   0.59549   0.91224   1.000
    O8253   O    0.28820   0.60443   0.91356   1.000
    O8254   O    0.02317   0.11119   0.91630   1.000
    O8255   O    0.19680   0.06010   0.91091   1.000
    O8256   O    0.56706   0.30525   0.91128   1.000
    O8257   O    0.56806   0.69510   0.91105   1.000
    O8258   O    0.92596   0.83749   0.91875   1.000
    O8259   O    0.48061   0.61146   0.91682   1.000
    O8260   O    0.42642   0.69249   0.91062   1.000
    O8261   O    0.41087   0.68613   0.91252   1.000
    O8262   O    0.52331   0.61076   0.91702   1.000
    O8263   O    0.40452   0.30124   0.91295   1.000
    O8264   O    0.39597   0.28859   0.91459   1.000
    O8265   O    0.19998   0.90451   0.91314   1.000
    O8266   O    0.21241   0.89555   0.91455   1.000
    O8267   O    0.06081   0.80109   0.91208   1.000
    O8268   O    0.97789   0.88668   0.91765   1.000
    O8269   O    0.08334   0.18902   0.91089   1.000
    O8270   O    0.09841   0.18175   0.91355   1.000
    O8271   O    0.30377   0.43882   0.91266   1.000
    O8272   O    0.19210   0.07448   0.91166   1.000
    O8273   O    0.18555   0.09002   0.91314   1.000
    O8274   O    0.11180   0.01918   0.91794   1.000
    O8275   O    0.93859   0.18353   0.91508   1.000
    O8276   O    0.81777   0.06215   0.91504   1.000
    O8277   O    0.89633   0.17874   0.91206   1.000
    O8278   O    0.02080   0.88631   0.91847   1.000
    O8279   O    0.07516   0.80585   0.91265   1.000
    O8280   O    0.09067   0.81244   0.91395   1.000
    O8281   O    0.61230   0.52060   0.91884   1.000
    O8282   O    0.69496   0.43081   0.91354   1.000
    O8283   O    0.34034   0.57453   0.92113   1.000
    O8284   O    0.58221   0.68959   0.91231   1.000
    O8285   O    0.59732   0.68226   0.91465   1.000
    O8286   O    0.68952   0.58189   0.91189   1.000
    O8287   O    0.68229   0.59691   0.91485   1.000
    O8288   O    0.11065   0.97621   0.91914   1.000
    O8289   O    0.06911   0.18088   0.91551   1.000
    O8290   O    0.52068   0.38849   0.91915   1.000
    O8291   O    0.82141   0.10459   0.91297   1.000
    O8292   O    0.47768   0.38974   0.91939   1.000
    O8293   O    0.43990   0.68367   0.91623   1.000
    O8294   O    0.42567   0.34092   0.92154   1.000
    O8295   O    0.16018   0.92525   0.92170   1.000
    O8296   O    0.61196   0.47740   0.91960   1.000
    O8297   O    0.38850   0.47989   0.91963   1.000
    O8298   O    0.38940   0.52291   0.91981   1.000
    O8299   O    0.68140   0.56754   0.91624   1.000
    O8300   O    0.58122   0.31065   0.91312   1.000
    O8301   O    0.59618   0.31810   0.91571   1.000
    O8302   O    0.86376   0.95591   0.91886   1.000
    O8303   O    0.30837   0.42444   0.91402   1.000
    O8304   O    0.31479   0.40890   0.91615   1.000
    O8305   O    0.18333   0.06103   0.91737   1.000
    O8306   O    0.56804   0.68141   0.91699   1.000
    O8307   O    0.86324   0.04423   0.91941   1.000
    O8308   O    0.90746   0.17065   0.91782   1.000
    O8309   O    0.39754   0.67908   0.91457   1.000
    O8310   O    0.91112   0.80716   0.92321   1.000
    O8311   O    0.17830   0.10333   0.91483   1.000
    O8312   O    0.95735   0.13830   0.91982   1.000
    O8313   O    0.04728   0.13654   0.92002   1.000
    O8314   O    0.56686   0.31855   0.91783   1.000
    O8315   O    0.68932   0.41673   0.91474   1.000
    O8316   O    0.68191   0.40170   0.91706   1.000
    O8317   O    0.82982   0.09355   0.91849   1.000
    O8318   O    0.10397   0.81971   0.91553   1.000
    O8319   O    0.06179   0.81444   0.91875   1.000
    O8320   O    0.54687   0.63654   0.92080   1.000
    O8321   O    0.45827   0.63820   0.92080   1.000
    O8322   O    0.31716   0.43799   0.91937   1.000
    O8323   O    0.63738   0.54511   0.92171   1.000
    O8324   O    0.13812   0.04209   0.92173   1.000
    O8325   O    0.68131   0.43099   0.91954   1.000
    O8326   O    0.40879   0.67099   0.92008   1.000
    O8327   O    0.95456   0.86057   0.92185   1.000
    O8328   O    0.31005   0.58940   0.92553   1.000
    O8329   O    0.17026   0.09211   0.92037   1.000
    O8330   O    0.11123   0.17422   0.91650   1.000
    O8331   O    0.54464   0.36287   0.92261   1.000
    O8332   O    0.41108   0.31049   0.92609   1.000
    O8333   O    0.04320   0.85967   0.92288   1.000
    O8334   O    0.19062   0.91070   0.92634   1.000
    O8335   O    0.61017   0.67467   0.91730   1.000
    O8336   O    0.09282   0.82759   0.92142   1.000
    O8337   O    0.09926   0.16637   0.92083   1.000
    O8338   O    0.63716   0.45321   0.92362   1.000
    O8339   O    0.32187   0.39559   0.91842   1.000
    O8340   O    0.36225   0.45695   0.92373   1.000
    O8341   O    0.67468   0.60964   0.91789   1.000
    O8342   O    0.59827   0.66680   0.92170   1.000
    O8343   O    0.45432   0.36393   0.92408   1.000
    O8344   O    0.60886   0.32587   0.91849   1.000
    O8345   O    0.66694   0.59757   0.92212   1.000
    O8346   O    0.13697   0.95362   0.92442   1.000
    O8347   O    0.36325   0.54588   0.92445   1.000
    O8348   O    0.59677   0.33343   0.92301   1.000
    O8349   O    0.67429   0.38892   0.91971   1.000
    O8350   O    0.91577   0.00928   0.92446   1.000
    O8351   O    0.91572   0.99101   0.92464   1.000
    O8352   O    0.82644   0.05108   0.92032   1.000
    O8353   O    0.83293   0.06459   0.92241   1.000
    O8354   O    0.32997   0.40692   0.92367   1.000
    O8355   O    0.05715   0.17304   0.92000   1.000
    O8356   O    0.06999   0.16547   0.92278   1.000
    O8357   O    0.94976   0.17515   0.92060   1.000
    O8358   O    0.93639   0.16831   0.92240   1.000
    O8359   O    0.99199   0.08562   0.92520   1.000
    O8360   O    0.01026   0.08541   0.92527   1.000
    O8361   O    0.67362   0.55546   0.92054   1.000
    O8362   O    0.66614   0.56824   0.92371   1.000
    O8363   O    0.66652   0.40091   0.92417   1.000
    O8364   O    0.45119   0.67526   0.92148   1.000
    O8365   O    0.43783   0.66856   0.92377   1.000
    O8366   O    0.49267   0.58527   0.92587   1.000
    O8367   O    0.51084   0.58495   0.92595   1.000
    O8368   O    0.55613   0.67352   0.92149   1.000
    O8369   O    0.56902   0.66595   0.92402   1.000
    O8370   O    0.08539   0.00734   0.92665   1.000
    O8371   O    0.08485   0.98908   0.92718   1.000
    O8372   O    0.99044   0.91263   0.92666   1.000
    O8373   O    0.00869   0.91247   0.92704   1.000
    O8374   O    0.17499   0.04978   0.92268   1.000
    O8375   O    0.16807   0.06312   0.92459   1.000
    O8376   O    0.55479   0.32619   0.92239   1.000
    O8377   O    0.56752   0.33382   0.92522   1.000
    O8378   O    0.50892   0.41491   0.92762   1.000
    O8379   O    0.49069   0.41548   0.92772   1.000
    O8380   O    0.58611   0.50849   0.92747   1.000
    O8381   O    0.58595   0.49016   0.92779   1.000
    O8382   O    0.92082   0.16188   0.92380   1.000
    O8383   O    0.90646   0.15714   0.92426   1.000
    O8384   O    0.83895   0.08029   0.92414   1.000
    O8385   O    0.84330   0.09477   0.92491   1.000
    O8386   O    0.41484   0.49188   0.92825   1.000
    O8387   O    0.41525   0.51016   0.92833   1.000
    O8388   O    0.90072   0.02174   0.92630   1.000
    O8389   O    0.88825   0.03273   0.92775   1.000
    O8390   O    0.05059   0.82268   0.92436   1.000
    O8391   O    0.06393   0.82958   0.92614   1.000
    O8392   O    0.90060   0.97881   0.92666   1.000
    O8393   O    0.88808   0.96791   0.92807   1.000
    O8394   O    0.67357   0.44297   0.92415   1.000
    O8395   O    0.66587   0.43018   0.92660   1.000
    O8396   O    0.32551   0.44934   0.92440   1.000
    O8397   O    0.33232   0.43602   0.92686   1.000
    O8398   O    0.84989   0.93276   0.92829   1.000
    O8399   O    0.83393   0.92550   0.92887   1.000
    O8400   O    0.97985   0.10085   0.92707   1.000
    O8401   O    0.96900   0.11342   0.92845   1.000
    O8402   O    0.02288   0.10031   0.92724   1.000
    O8403   O    0.03415   0.11246   0.92882   1.000
    O8404   O    0.48055   0.60060   0.92779   1.000
    O8405   O    0.46988   0.61331   0.92939   1.000
    O8406   O    0.42227   0.66224   0.92573   1.000
    O8407   O    0.40792   0.65757   0.92668   1.000
    O8408   O    0.52322   0.59988   0.92796   1.000
    O8409   O    0.53415   0.61227   0.92960   1.000
    O8410   O    0.16155   0.07865   0.92612   1.000
    O8411   O    0.15673   0.09300   0.92670   1.000
    O8412   O    0.08507   0.15824   0.92544   1.000
    O8413   O    0.09913   0.15280   0.92714   1.000
    O8414   O    0.87495   0.95646   0.92896   1.000
    O8415   O    0.86245   0.94486   0.92900   1.000
    O8416   O    0.97789   0.89763   0.92846   1.000
    O8417   O    0.96675   0.88538   0.92997   1.000
    O8418   O    0.80468   0.91280   0.92943   1.000
    O8419   O    0.81840   0.91862   0.92964   1.000
    O8420   O    0.93444   0.15241   0.92960   1.000
    O8421   O    0.10074   0.01949   0.92864   1.000
    O8422   O    0.11332   0.03031   0.93023   1.000
    O8423   O    0.84882   0.06678   0.92958   1.000
    O8424   O    0.87484   0.04394   0.92906   1.000
    O8425   O    0.86195   0.05518   0.92963   1.000
    O8426   O    0.58414   0.65866   0.92639   1.000
    O8427   O    0.59819   0.65316   0.92785   1.000
    O8428   O    0.07945   0.83614   0.92751   1.000
    O8429   O    0.09375   0.84102   0.92795   1.000
    O8430   O    0.95771   0.12679   0.92957   1.000
    O8431   O    0.94628   0.13950   0.92991   1.000
    O8432   O    0.65892   0.58326   0.92663   1.000
    O8433   O    0.65344   0.59729   0.92848   1.000
    O8434   O    0.02080   0.89723   0.92931   1.000
    O8435   O    0.03155   0.88460   0.93108   1.000
    O8436   O    0.07067   0.14961   0.93040   1.000
    O8437   O    0.60121   0.52082   0.92951   1.000
    O8438   O    0.61352   0.53192   0.93100   1.000
    O8439   O    0.04606   0.12527   0.93003   1.000
    O8440   O    0.05808   0.13739   0.93050   1.000
    O8441   O    0.52090   0.39954   0.92986   1.000
    O8442   O    0.53166   0.38696   0.93162   1.000
    O8443   O    0.09956   0.97653   0.92982   1.000
    O8444   O    0.11184   0.96539   0.93179   1.000
    O8445   O    0.47798   0.40080   0.93008   1.000
    O8446   O    0.46676   0.38862   0.93195   1.000
    O8447   O    0.43598   0.65277   0.93123   1.000
    O8448   O    0.58247   0.34124   0.92781   1.000
    O8449   O    0.59642   0.34692   0.92941   1.000
    O8450   O    0.45881   0.62681   0.93072   1.000
    O8451   O    0.44763   0.63972   0.93130   1.000
    O8452   O    0.60085   0.47764   0.93025   1.000
    O8453   O    0.61301   0.46638   0.93208   1.000
    O8454   O    0.39955   0.47973   0.93039   1.000
    O8455   O    0.38698   0.46894   0.93213   1.000
    O8456   O    0.54574   0.62531   0.93087   1.000
    O8457   O    0.55746   0.63767   0.93144   1.000
    O8458   O    0.56981   0.65007   0.93145   1.000
    O8459   O    0.65048   0.56875   0.93164   1.000
    O8460   O    0.40048   0.52274   0.93054   1.000
    O8461   O    0.38829   0.53395   0.93219   1.000
    O8462   O    0.15216   0.06495   0.93175   1.000
    O8463   O    0.95514   0.87229   0.93132   1.000
    O8464   O    0.94355   0.85978   0.93207   1.000
    O8465   O    0.12663   0.04164   0.93147   1.000
    O8466   O    0.13930   0.05307   0.93193   1.000
    O8467   O    0.33873   0.42049   0.92902   1.000
    O8468   O    0.34345   0.40613   0.93020   1.000
    O8469   O    0.62629   0.54391   0.93188   1.000
    O8470   O    0.63836   0.55601   0.93203   1.000
    O8471   O    0.65849   0.41513   0.92892   1.000
    O8472   O    0.65291   0.40111   0.93032   1.000
    O8473   O    0.93148   0.84704   0.93235   1.000
    O8474   O    0.92418   0.83120   0.93434   1.000
    O8475   O    0.56797   0.34952   0.93298   1.000
    O8476   O    0.54338   0.37393   0.93278   1.000
    O8477   O    0.55532   0.36171   0.93318   1.000
    O8478   O    0.06580   0.84546   0.93327   1.000
    O8479   O    0.04271   0.87117   0.93258   1.000
    O8480   O    0.05403   0.85839   0.93328   1.000
    O8481   O    0.64996   0.42958   0.93394   1.000
    O8482   O    0.62579   0.45441   0.93345   1.000
    O8483   O    0.63784   0.44229   0.93399   1.000
    O8484   O    0.37370   0.45761   0.93353   1.000
    O8485   O    0.36104   0.44617   0.93419   1.000
    O8486   O    0.34817   0.43431   0.93425   1.000
    O8487   O    0.45514   0.37561   0.93358   1.000
    O8488   O    0.44360   0.36306   0.93458   1.000
    O8489   O    0.37518   0.54547   0.93371   1.000
    O8490   O    0.36263   0.55703   0.93450   1.000
    O8491   O    0.12506   0.95404   0.93363   1.000
    O8492   O    0.13777   0.94267   0.93473   1.000
    O8493   O    0.34993   0.56911   0.93473   1.000
    O8494   O    0.33413   0.57642   0.93672   1.000
    O8495   O    0.43158   0.35030   0.93508   1.000
    O8496   O    0.42439   0.33442   0.93710   1.000
    O8497   O    0.15061   0.93076   0.93521   1.000
    O8498   O    0.16650   0.92362   0.93732   1.000
    O8499   O    0.88742   0.04483   0.94037   1.000
    O8500   O    0.88694   0.95600   0.94091   1.000
    O8501   O    0.91678   0.81605   0.93657   1.000
    O8502   O    0.91013   0.80267   0.93762   1.000
    O8503   O    0.86202   0.93288   0.94099   1.000
    O8504   O    0.95688   0.11430   0.94100   1.000
    O8505   O    0.04596   0.11299   0.94174   1.000
    O8506   O    0.86180   0.06727   0.94145   1.000
    O8507   O    0.93404   0.13956   0.94160   1.000
    O8508   O    0.82614   0.92323   0.94161   1.000
    O8509   O    0.45822   0.61451   0.94236   1.000
    O8510   O    0.54572   0.61313   0.94268   1.000
    O8511   O    0.06988   0.13712   0.94268   1.000
    O8512   O    0.95469   0.88491   0.94256   1.000
    O8513   O    0.11416   0.04235   0.94288   1.000
    O8514   O    0.31899   0.58386   0.93892   1.000
    O8515   O    0.30561   0.59053   0.93992   1.000
    O8516   O    0.43589   0.64018   0.94346   1.000
    O8517   O    0.56905   0.63775   0.94379   1.000
    O8518   O    0.61419   0.54389   0.94371   1.000
    O8519   O    0.41710   0.31923   0.93937   1.000
    O8520   O    0.41053   0.30582   0.94046   1.000
    O8521   O    0.13935   0.06518   0.94374   1.000
    O8522   O    0.18171   0.91634   0.93963   1.000
    O8523   O    0.19516   0.90978   0.94073   1.000
    O8524   O    0.63824   0.56790   0.94403   1.000
    O8525   O    0.04335   0.88362   0.94398   1.000
    O8526   O    0.93158   0.86004   0.94403   1.000
    O8527   O    0.54326   0.38598   0.94467   1.000
    O8528   O    0.11222   0.95339   0.94463   1.000
    O8529   O    0.45494   0.38817   0.94491   1.000
    O8530   O    0.61335   0.45446   0.94494   1.000
    O8531   O    0.38805   0.54613   0.94471   1.000
    O8532   O    0.38612   0.45713   0.94505   1.000
    O8533   O    0.56699   0.36161   0.94546   1.000
    O8534   O    0.06601   0.85822   0.94528   1.000
    O8535   O    0.63738   0.43035   0.94600   1.000
    O8536   O    0.36095   0.43430   0.94631   1.000
    O8537   O    0.36305   0.56916   0.94627   1.000
    O8538   O    0.43198   0.36318   0.94687   1.000
    O8539   O    0.13756   0.93075   0.94677   1.000
    O8540   O    0.92205   0.82449   0.94774   1.000
    O8541   O    0.32752   0.57866   0.95012   1.000
    O8542   O    0.42269   0.32755   0.95048   1.000
    O8543   O    0.17322   0.92163   0.95075   1.000
    O8544   O    0.89811   0.04662   0.95083   1.000
    O8545   O    0.88726   0.05700   0.95234   1.000
    O8546   O    0.95513   0.10367   0.95155   1.000
    O8547   O    0.94459   0.11438   0.95284   1.000
    O8548   O    0.89715   0.95456   0.95191   1.000
    O8549   O    0.88651   0.94394   0.95304   1.000
    O8550   O    0.86271   0.92257   0.95196   1.000
    O8551   O    0.87409   0.93242   0.95308   1.000
    O8552   O    0.86270   0.07762   0.95233   1.000
    O8553   O    0.87453   0.06821   0.95285   1.000
    O8554   O    0.92357   0.13859   0.95236   1.000
    O8555   O    0.93318   0.12693   0.95310   1.000
    O8556   O    0.04695   0.10249   0.95255   1.000
    O8557   O    0.05788   0.11273   0.95401   1.000
    O8558   O    0.95322   0.89570   0.95294   1.000
    O8559   O    0.94257   0.88521   0.95457   1.000
    O8560   O    0.45671   0.60406   0.95314   1.000
    O8561   O    0.44642   0.61500   0.95467   1.000
    O8562   O    0.07984   0.13594   0.95392   1.000
    O8563   O    0.06978   0.12474   0.95448   1.000
    O8564   O    0.10357   0.04400   0.95342   1.000
    O8565   O    0.11425   0.05452   0.95484   1.000
    O8566   O    0.54676   0.60274   0.95360   1.000
    O8567   O    0.55742   0.61323   0.95514   1.000
    O8568   O    0.42585   0.63958   0.95463   1.000
    O8569   O    0.43527   0.62776   0.95518   1.000
    O8570   O    0.13837   0.07553   0.95461   1.000
    O8571   O    0.12675   0.06592   0.95524   1.000
    O8572   O    0.60381   0.54500   0.95458   1.000
    O8573   O    0.61405   0.55596   0.95577   1.000
    O8574   O    0.92124   0.86142   0.95486   1.000
    O8575   O    0.93106   0.87285   0.95528   1.000
    O8576   O    0.04491   0.89421   0.95453   1.000
    O8577   O    0.05536   0.88342   0.95615   1.000
    O8578   O    0.57887   0.63689   0.95516   1.000
    O8579   O    0.56903   0.62550   0.95568   1.000
    O8580   O    0.63723   0.57791   0.95517   1.000
    O8581   O    0.62605   0.56787   0.95594   1.000
    O8582   O    0.39908   0.54778   0.95487   1.000
    O8583   O    0.38850   0.55839   0.95655   1.000
    O8584   O    0.10125   0.95176   0.95481   1.000
    O8585   O    0.11199   0.94132   0.95677   1.000
    O8586   O    0.54423   0.39627   0.95563   1.000
    O8587   O    0.55505   0.38587   0.95703   1.000
    O8588   O    0.60270   0.45341   0.95554   1.000
    O8589   O    0.61289   0.44239   0.95705   1.000
    O8590   O    0.45371   0.39891   0.95542   1.000
    O8591   O    0.44315   0.38832   0.95730   1.000
    O8592   O    0.39668   0.45569   0.95571   1.000
    O8593   O    0.38601   0.44519   0.95731   1.000
    O8594   O    0.07628   0.85911   0.95628   1.000
    O8595   O    0.06669   0.87081   0.95676   1.000
    O8596   O    0.57686   0.36245   0.95676   1.000
    O8597   O    0.56686   0.37373   0.95741   1.000
    O8598   O    0.36453   0.57963   0.95692   1.000
    O8599   O    0.37605   0.56987   0.95731   1.000
    O8600   O    0.63604   0.42026   0.95709   1.000
    O8601   O    0.62487   0.43040   0.95757   1.000
    O8602   O    0.36190   0.42418   0.95746   1.000
    O8603   O    0.37351   0.43380   0.95791   1.000
    O8604   O    0.13628   0.92044   0.95765   1.000
    O8605   O    0.12462   0.93004   0.95782   1.000
    O8606   O    0.42195   0.36439   0.95799   1.000
    O8607   O    0.43172   0.37587   0.95825   1.000
    O8608   O    0.88778   0.06977   0.96429   1.000
    O8609   O    0.93169   0.11371   0.96461   1.000
    O8610   O    0.88687   0.93118   0.96506   1.000
    O8611   O    0.07050   0.11170   0.96617   1.000
    O8612   O    0.92978   0.88630   0.96640   1.000
    O8613   O    0.43395   0.61476   0.96690   1.000
    O8614   O    0.11358   0.06731   0.96674   1.000
    O8615   O    0.56993   0.61257   0.96739   1.000
    O8616   O    0.61320   0.56880   0.96766   1.000
    O8617   O    0.06797   0.88399   0.96826   1.000
    O8618   O    0.38962   0.57135   0.96824   1.000
    O8619   O    0.11115   0.92853   0.96880   1.000
    O8620   O    0.61174   0.42962   0.96903   1.000
    O8621   O    0.56769   0.38656   0.96914   1.000
    O8622   O    0.38668   0.43261   0.96948   1.000
    O8623   O    0.43062   0.38914   0.96957   1.000
    O8624   O    0.88914   0.08230   0.97518   1.000
    O8625   O    0.90009   0.07143   0.97543   1.000
    O8626   O    0.91909   0.11223   0.97541   1.000
    O8627   O    0.93002   0.10134   0.97566   1.000
    O8628   O    0.88793   0.91882   0.97623   1.000
    O8629   O    0.89904   0.92950   0.97634   1.000
    O8630   O    0.91722   0.88821   0.97712   1.000
    O8631   O    0.92833   0.89889   0.97717   1.000
    O8632   O    0.07167   0.09930   0.97729   1.000
    O8633   O    0.08271   0.11003   0.97741   1.000
    O8634   O    0.10115   0.06899   0.97767   1.000
    O8635   O    0.11219   0.07972   0.97777   1.000
    O8636   O    0.42163   0.61364   0.97803   1.000
    O8637   O    0.43245   0.60263   0.97823   1.000
    O8638   O    0.58223   0.61116   0.97849   1.000
    O8639   O    0.57126   0.60035   0.97867   1.000
    O8640   O    0.61183   0.58119   0.97860   1.000
    O8641   O    0.60089   0.57034   0.97878   1.000
    O8642   O    0.39146   0.58404   0.97878   1.000
    O8643   O    0.40227   0.57303   0.97895   1.000
    O8644   O    0.06939   0.89632   0.97929   1.000
    O8645   O    0.08032   0.88542   0.97939   1.000
    O8646   O    0.09858   0.92681   0.97956   1.000
    O8647   O    0.10958   0.91597   0.97967   1.000
    O8648   O    0.59928   0.42835   0.98001   1.000
    O8649   O    0.61002   0.41726   0.98006   1.000
    O8650   O    0.56916   0.39888   0.98022   1.000
    O8651   O    0.57995   0.38783   0.98026   1.000
    O8652   O    0.39904   0.43119   0.98056   1.000
    O8653   O    0.38817   0.42029   0.98067   1.000
    O8654   O    0.42919   0.40159   0.98058   1.000
    O8655   O    0.41833   0.39067   0.98071   1.000
    O8656   O    0.89100   0.09740   0.98745   1.000
    O8657   O    0.90385   0.11023   0.98754   1.000
    O8658   O    0.91509   0.07347   0.98798   1.000
    O8659   O    0.92792   0.08628   0.98808   1.000
    O8660   O    0.88947   0.90382   0.98877   1.000
    O8661   O    0.91392   0.92729   0.98897   1.000
    O8662   O    0.90203   0.89070   0.98916   1.000
    O8663   O    0.92647   0.91418   0.98929   1.000
    O8664   O    0.07334   0.08417   0.98971   1.000
    O8665   O    0.09762   0.10780   0.98997   1.000
    O8666   O    0.08598   0.07118   0.98988   1.000
    O8667   O    0.11027   0.09479   0.99012   1.000
    O8668   O    0.40659   0.61201   0.99045   1.000
    O8669   O    0.43041   0.58778   0.99088   1.000
    O8670   O    0.59740   0.60924   0.99075   1.000
    O8671   O    0.61009   0.59639   0.99078   1.000
    O8672   O    0.39366   0.59933   0.99074   1.000
    O8673   O    0.57327   0.58543   0.99121   1.000
    O8674   O    0.58598   0.57254   0.99124   1.000
    O8675   O    0.41748   0.57510   0.99115   1.000
    O8676   O    0.07110   0.91145   0.99165   1.000
    O8677   O    0.09523   0.88753   0.99187   1.000
    O8678   O    0.08357   0.92453   0.99175   1.000
    O8679   O    0.10775   0.90067   0.99198   1.000
    O8680   O    0.58427   0.42658   0.99240   1.000
    O8681   O    0.60793   0.40218   0.99245   1.000
    O8682   O    0.57136   0.41393   0.99251   1.000
    O8683   O    0.59505   0.38956   0.99255   1.000
    O8684   O    0.42715   0.41664   0.99290   1.000
    O8685   O    0.41421   0.42932   0.99291   1.000
    O8686   O    0.39030   0.40531   0.99315   1.000
    O8687   O    0.40327   0.39261   0.99317   1.000
    O8688   O    0.89099   0.09734   0.00573   1.000
    O8689   O    0.90356   0.11032   0.00583   1.000
    O8690   O    0.91506   0.07340   0.00628   1.000
    O8691   O    0.92762   0.08638   0.00638   1.000
    O8692   O    0.88935   0.90402   0.00704   1.000
    O8693   O    0.90178   0.89089   0.00737   1.000
    O8694   O    0.91380   0.92749   0.00726   1.000
    O8695   O    0.92625   0.91435   0.00754   1.000
    O8696   O    0.07303   0.08405   0.00799   1.000
    O8697   O    0.08586   0.07122   0.00816   1.000
    O8698   O    0.09732   0.10766   0.00824   1.000
    O8699   O    0.11017   0.09482   0.00842   1.000
    O8700   O    0.40652   0.61229   0.00876   1.000
    O8701   O    0.39376   0.59952   0.00887   1.000
    O8702   O    0.61036   0.59655   0.00894   1.000
    O8703   O    0.59770   0.60949   0.00897   1.000
    O8704   O    0.43036   0.58807   0.00922   1.000
    O8705   O    0.41759   0.57529   0.00933   1.000
    O8706   O    0.58625   0.57271   0.00948   1.000
    O8707   O    0.57354   0.58569   0.00951   1.000
    O8708   O    0.07093   0.91151   0.00991   1.000
    O8709   O    0.08368   0.92432   0.00994   1.000
    O8710   O    0.10786   0.90045   0.01020   1.000
    O8711   O    0.09506   0.88760   0.01020   1.000
    O8712   O    0.58450   0.42656   0.01060   1.000
    O8713   O    0.57149   0.41396   0.01081   1.000
    O8714   O    0.60812   0.40212   0.01059   1.000
    O8715   O    0.59513   0.38956   0.01077   1.000
    O8716   O    0.42723   0.41664   0.01120   1.000
    O8717   O    0.41429   0.42937   0.01121   1.000
    O8718   O    0.40336   0.39260   0.01144   1.000
    O8719   O    0.39040   0.40536   0.01147   1.000
    O8720   O    0.88906   0.08224   0.01824   1.000
    O8721   O    0.91838   0.11242   0.01847   1.000
    O8722   O    0.90000   0.07135   0.01849   1.000
    O8723   O    0.92932   0.10153   0.01873   1.000
    O8724   O    0.88762   0.91923   0.01929   1.000
    O8725   O    0.89872   0.92990   0.01941   1.000
    O8726   O    0.91662   0.88865   0.02000   1.000
    O8727   O    0.92774   0.89931   0.02008   1.000
    O8728   O    0.07099   0.09905   0.02032   1.000
    O8729   O    0.08204   0.10977   0.02043   1.000
    O8730   O    0.10086   0.06906   0.02072   1.000
    O8731   O    0.11192   0.07977   0.02084   1.000
    O8732   O    0.42146   0.61427   0.02122   1.000
    O8733   O    0.61245   0.58155   0.02136   1.000
    O8734   O    0.39170   0.58453   0.02140   1.000
    O8735   O    0.58288   0.61175   0.02146   1.000
    O8736   O    0.43230   0.60327   0.02144   1.000
    O8737   O    0.40252   0.57351   0.02161   1.000
    O8738   O    0.60150   0.57071   0.02162   1.000
    O8739   O    0.57189   0.60095   0.02173   1.000
    O8740   O    0.06899   0.89644   0.02230   1.000
    O8741   O    0.09878   0.92637   0.02232   1.000
    O8742   O    0.10976   0.91553   0.02246   1.000
    O8743   O    0.07993   0.88556   0.02247   1.000
    O8744   O    0.61048   0.41717   0.02275   1.000
    O8745   O    0.59976   0.42830   0.02277   1.000
    O8746   O    0.58016   0.38784   0.02323   1.000
    O8747   O    0.56943   0.39893   0.02327   1.000
    O8748   O    0.42940   0.40161   0.02362   1.000
    O8749   O    0.39923   0.43134   0.02366   1.000
    O8750   O    0.41856   0.39068   0.02374   1.000
    O8751   O    0.38836   0.42044   0.02378   1.000
    O8752   O    0.88754   0.07004   0.02950   1.000
    O8753   O    0.93050   0.11387   0.02985   1.000
    O8754   O    0.88629   0.93150   0.03039   1.000
    O8755   O    0.92879   0.88698   0.03128   1.000
    O8756   O    0.06959   0.11147   0.03134   1.000
    O8757   O    0.11309   0.06732   0.03191   1.000
    O8758   O    0.43358   0.61559   0.03255   1.000
    O8759   O    0.61411   0.56922   0.03241   1.000
    O8760   O    0.39000   0.57223   0.03249   1.000
    O8761   O    0.57074   0.61344   0.03268   1.000
    O8762   O    0.11122   0.92812   0.03324   1.000
    O8763   O    0.06742   0.88414   0.03341   1.000
    O8764   O    0.61240   0.42959   0.03354   1.000
    O8765   O    0.56790   0.38658   0.03438   1.000
    O8766   O    0.43107   0.38921   0.03466   1.000
    O8767   O    0.38692   0.43292   0.03475   1.000
    O8768   O    0.87456   0.06939   0.04112   1.000
    O8769   O    0.88649   0.05736   0.04167   1.000
    O8770   O    0.93112   0.12674   0.04170   1.000
    O8771   O    0.94308   0.11473   0.04204   1.000
    O8772   O    0.87343   0.93235   0.04210   1.000
    O8773   O    0.88541   0.94427   0.04237   1.000
    O8774   O    0.86344   0.07958   0.04163   1.000
    O8775   O    0.06875   0.12447   0.04294   1.000
    O8776   O    0.05667   0.11265   0.04315   1.000
    O8777   O    0.92100   0.13791   0.04238   1.000
    O8778   O    0.92941   0.87399   0.04302   1.000
    O8779   O    0.94136   0.88594   0.04346   1.000
    O8780   O    0.86229   0.92225   0.04285   1.000
    O8781   O    0.12610   0.06581   0.04364   1.000
    O8782   O    0.11347   0.05453   0.04388   1.000
    O8783   O    0.62725   0.56832   0.04390   1.000
    O8784   O    0.61528   0.55639   0.04428   1.000
    O8785   O    0.37681   0.57140   0.04386   1.000
    O8786   O    0.38884   0.55949   0.04449   1.000
    O8787   O    0.91928   0.86285   0.04362   1.000
    O8788   O    0.89667   0.04632   0.04321   1.000
    O8789   O    0.43421   0.62831   0.04451   1.000
    O8790   O    0.44617   0.61631   0.04472   1.000
    O8791   O    0.57013   0.62650   0.04427   1.000
    O8792   O    0.55819   0.61456   0.04479   1.000
    O8793   O    0.95405   0.10447   0.04341   1.000
    O8794   O    0.07896   0.13551   0.04371   1.000
    O8795   O    0.89565   0.95521   0.04368   1.000
    O8796   O    0.12454   0.92973   0.04454   1.000
    O8797   O    0.11191   0.94104   0.04497   1.000
    O8798   O    0.36557   0.58147   0.04425   1.000
    O8799   O    0.62561   0.43033   0.04492   1.000
    O8800   O    0.61385   0.44250   0.04521   1.000
    O8801   O    0.06604   0.87107   0.04513   1.000
    O8802   O    0.05455   0.88355   0.04516   1.000
    O8803   O    0.63840   0.57841   0.04453   1.000
    O8804   O    0.13780   0.07533   0.04449   1.000
    O8805   O    0.58026   0.63764   0.04478   1.000
    O8806   O    0.04555   0.10258   0.04439   1.000
    O8807   O    0.13630   0.92024   0.04510   1.000
    O8808   O    0.95233   0.89614   0.04491   1.000
    O8809   O    0.42405   0.63944   0.04534   1.000
    O8810   O    0.56654   0.37334   0.04577   1.000
    O8811   O    0.55553   0.38618   0.04672   1.000
    O8812   O    0.10266   0.04412   0.04518   1.000
    O8813   O    0.43259   0.37589   0.04599   1.000
    O8814   O    0.44381   0.38854   0.04671   1.000
    O8815   O    0.37380   0.43429   0.04635   1.000
    O8816   O    0.38626   0.44575   0.04660   1.000
    O8817   O    0.63662   0.42003   0.04560   1.000
    O8818   O    0.57593   0.36153   0.04603   1.000
    O8819   O    0.60508   0.54544   0.04565   1.000
    O8820   O    0.45713   0.60604   0.04597   1.000
    O8821   O    0.07573   0.85949   0.04609   1.000
    O8822   O    0.42316   0.36412   0.04634   1.000
    O8823   O    0.04393   0.89421   0.04626   1.000
    O8824   O    0.39909   0.54853   0.04610   1.000
    O8825   O    0.54722   0.60438   0.04629   1.000
    O8826   O    0.60384   0.45366   0.04647   1.000
    O8827   O    0.10114   0.95151   0.04639   1.000
    O8828   O    0.36222   0.42464   0.04710   1.000
    O8829   O    0.86220   0.06964   0.05286   1.000
    O8830   O    0.39688   0.45635   0.04788   1.000
    O8831   O    0.93091   0.13888   0.05370   1.000
    O8832   O    0.45418   0.39933   0.04842   1.000
    O8833   O    0.54535   0.39714   0.04856   1.000
    O8834   O    0.88614   0.04543   0.05397   1.000
    O8835   O    0.86123   0.93223   0.05400   1.000
    O8836   O    0.57423   0.32490   0.05355   1.000
    O8837   O    0.95494   0.11474   0.05438   1.000
    O8838   O    0.88525   0.95624   0.05455   1.000
    O8839   O    0.06876   0.13686   0.05466   1.000
    O8840   O    0.92928   0.86162   0.05482   1.000
    O8841   O    0.04444   0.11313   0.05509   1.000
    O8842   O    0.36420   0.57136   0.05532   1.000
    O8843   O    0.13854   0.06489   0.05535   1.000
    O8844   O    0.63973   0.56824   0.05556   1.000
    O8845   O    0.95327   0.88566   0.05574   1.000
    O8846   O    0.11311   0.04235   0.05589   1.000
    O8847   O    0.57034   0.63888   0.05600   1.000
    O8848   O    0.13736   0.93076   0.05578   1.000
    O8849   O    0.61569   0.54426   0.05632   1.000
    O8850   O    0.43391   0.64024   0.05669   1.000
    O8851   O    0.63821   0.43029   0.05644   1.000
    O8852   O    0.38837   0.54743   0.05662   1.000
    O8853   O    0.45796   0.61614   0.05710   1.000
    O8854   O    0.11194   0.95341   0.05672   1.000
    O8855   O    0.54634   0.61487   0.05705   1.000
    O8856   O    0.06527   0.85865   0.05688   1.000
    O8857   O    0.04226   0.88379   0.05700   1.000
    O8858   O    0.61456   0.45474   0.05704   1.000
    O8859   O    0.56601   0.36069   0.05728   1.000
    O8860   O    0.43344   0.36310   0.05730   1.000
    O8861   O    0.36125   0.43505   0.05793   1.000
    O8862   O    0.38634   0.45803   0.05847   1.000
    O8863   O    0.45591   0.38853   0.05883   1.000
    O8864   O    0.54391   0.38654   0.05921   1.000
    O8865   O    0.58625   0.30289   0.06327   1.000
    O8866   O    0.84976   0.07068   0.06502   1.000
    O8867   O    0.86182   0.05785   0.06504   1.000
    O8868   O    0.57988   0.31639   0.06453   1.000
    O8869   O    0.57286   0.33171   0.06697   1.000
    O8870   O    0.94265   0.13889   0.06594   1.000
    O8871   O    0.92997   0.15111   0.06620   1.000
    O8872   O    0.87383   0.04567   0.06560   1.000
    O8873   O    0.88656   0.03359   0.06694   1.000
    O8874   O    0.86105   0.94406   0.06607   1.000
    O8875   O    0.84902   0.93125   0.06637   1.000
    O8876   O    0.95473   0.12676   0.06628   1.000
    O8877   O    0.96667   0.11387   0.06737   1.000
    O8878   O    0.05669   0.13735   0.06649   1.000
    O8879   O    0.06954   0.14933   0.06683   1.000
    O8880   O    0.87310   0.95615   0.06635   1.000
    O8881   O    0.88593   0.96808   0.06741   1.000
    O8882   O    0.94110   0.86130   0.06697   1.000
    O8883   O    0.92851   0.84910   0.06702   1.000
    O8884   O    0.04445   0.12544   0.06672   1.000
    O8885   O    0.03232   0.11278   0.06774   1.000
    O8886   O    0.35151   0.57204   0.06724   1.000
    O8887   O    0.36372   0.55942   0.06734   1.000
    O8888   O    0.13823   0.05275   0.06717   1.000
    O8889   O    0.15114   0.06446   0.06761   1.000
    O8890   O    0.13742   0.94306   0.06739   1.000
    O8891   O    0.15043   0.93134   0.06746   1.000
    O8892   O    0.64016   0.55621   0.06751   1.000
    O8893   O    0.65225   0.56895   0.06770   1.000
    O8894   O    0.95314   0.87339   0.06745   1.000
    O8895   O    0.96506   0.88620   0.06866   1.000
    O8896   O    0.12542   0.04147   0.06748   1.000
    O8897   O    0.11198   0.03038   0.06865   1.000
    O8898   O    0.55861   0.63920   0.06817   1.000
    O8899   O    0.57128   0.65137   0.06819   1.000
    O8900   O    0.63896   0.44243   0.06818   1.000
    O8901   O    0.65090   0.42950   0.06836   1.000
    O8902   O    0.62809   0.54416   0.06790   1.000
    O8903   O    0.61517   0.53234   0.06909   1.000
    O8904   O    0.12463   0.95440   0.06789   1.000
    O8905   O    0.11124   0.96566   0.06914   1.000
    O8906   O    0.37585   0.54740   0.06801   1.000
    O8907   O    0.38869   0.53552   0.06947   1.000
    O8908   O    0.05304   0.85888   0.06858   1.000
    O8909   O    0.06495   0.84603   0.06917   1.000
    O8910   O    0.62708   0.45472   0.06850   1.000
    O8911   O    0.61435   0.46683   0.06956   1.000
    O8912   O    0.04153   0.87154   0.06866   1.000
    O8913   O    0.03016   0.88487   0.06952   1.000
    O8914   O    0.44559   0.64007   0.06899   1.000
    O8915   O    0.43283   0.65216   0.06942   1.000
    O8916   O    0.43376   0.35012   0.06909   1.000
    O8917   O    0.44546   0.36306   0.06925   1.000
    O8918   O    0.54655   0.62713   0.06871   1.000
    O8919   O    0.53462   0.61431   0.06996   1.000
    O8920   O    0.56613   0.34779   0.06910   1.000
    O8921   O    0.55453   0.36106   0.06971   1.000
    O8922   O    0.45767   0.62796   0.06920   1.000
    O8923   O    0.46957   0.61505   0.07013   1.000
    O8924   O    0.89873   0.02229   0.06876   1.000
    O8925   O    0.91362   0.00969   0.07112   1.000
    O8926   O    0.36131   0.44725   0.06966   1.000
    O8927   O    0.34842   0.43537   0.06995   1.000
    O8928   O    0.97769   0.10145   0.06899   1.000
    O8929   O    0.98992   0.08621   0.07111   1.000
    O8930   O    0.89830   0.97912   0.06905   1.000
    O8931   O    0.91343   0.99137   0.07124   1.000
    O8932   O    0.02092   0.10072   0.06920   1.000
    O8933   O    0.00824   0.08590   0.07120   1.000
    O8934   O    0.37395   0.45876   0.06995   1.000
    O8935   O    0.38722   0.47020   0.07100   1.000
    O8936   O    0.90142   0.15436   0.06911   1.000
    O8937   O    0.84733   0.09917   0.06871   1.000
    O8938   O    0.45671   0.37585   0.07006   1.000
    O8939   O    0.46790   0.38919   0.07162   1.000
    O8940   O    0.09934   0.01963   0.07011   1.000
    O8941   O    0.08403   0.00751   0.07202   1.000
    O8942   O    0.97632   0.89834   0.07020   1.000
    O8943   O    0.98892   0.91322   0.07213   1.000
    O8944   O    0.09884   0.97673   0.07046   1.000
    O8945   O    0.08381   0.98924   0.07217   1.000
    O8946   O    0.54344   0.37406   0.07070   1.000
    O8947   O    0.53230   0.38762   0.07220   1.000
    O8948   O    0.01932   0.89750   0.07074   1.000
    O8949   O    0.00719   0.91287   0.07236   1.000
    O8950   O    0.60285   0.52129   0.07069   1.000
    O8951   O    0.58760   0.50904   0.07271   1.000
    O8952   O    0.60226   0.47817   0.07096   1.000
    O8953   O    0.58733   0.49074   0.07281   1.000
    O8954   O    0.40081   0.52421   0.07122   1.000
    O8955   O    0.41557   0.51163   0.07360   1.000
    O8956   O    0.58605   0.30743   0.07767   1.000
    O8957   O    0.84684   0.90280   0.07042   1.000
    O8958   O    0.52343   0.60212   0.07157   1.000
    O8959   O    0.51088   0.58714   0.07353   1.000
    O8960   O    0.48048   0.60256   0.07163   1.000
    O8961   O    0.49265   0.58731   0.07353   1.000
    O8962   O    0.90012   0.84623   0.07101   1.000
    O8963   O    0.09798   0.15175   0.07102   1.000
    O8964   O    0.39975   0.48110   0.07239   1.000
    O8965   O    0.41511   0.49332   0.07413   1.000
    O8966   O    0.84146   0.08526   0.07003   1.000
    O8967   O    0.83375   0.07037   0.07219   1.000
    O8968   O    0.34856   0.60041   0.07127   1.000
    O8969   O    0.86254   0.04704   0.07552   1.000
    O8970   O    0.59977   0.65428   0.07157   1.000
    O8971   O    0.47889   0.40156   0.07326   1.000
    O8972   O    0.49138   0.41635   0.07536   1.000
    O8973   O    0.40430   0.65474   0.07268   1.000
    O8974   O    0.95340   0.13780   0.07646   1.000
    O8975   O    0.86194   0.95489   0.07644   1.000
    O8976   O    0.65452   0.59729   0.07220   1.000
    O8977   O    0.04564   0.13672   0.07666   1.000
    O8978   O    0.52163   0.40032   0.07382   1.000
    O8979   O    0.50956   0.41578   0.07563   1.000
    O8980   O    0.91546   0.15966   0.07116   1.000
    O8981   O    0.93049   0.16674   0.07425   1.000
    O8982   O    0.84088   0.91669   0.07165   1.000
    O8983   O    0.83309   0.93157   0.07373   1.000
    O8984   O    0.83360   0.09965   0.07459   1.000
    O8985   O    0.95191   0.86210   0.07744   1.000
    O8986   O    0.08403   0.15761   0.07214   1.000
    O8987   O    0.06909   0.16531   0.07412   1.000
    O8988   O    0.13683   0.04176   0.07738   1.000
    O8989   O    0.15546   0.90345   0.07295   1.000
    O8990   O    0.91414   0.84057   0.07220   1.000
    O8991   O    0.92920   0.83309   0.07424   1.000
    O8992   O    0.34290   0.58640   0.07231   1.000
    O8993   O    0.33543   0.57134   0.07418   1.000
    O8994   O    0.13634   0.95420   0.07742   1.000
    O8995   O    0.15546   0.09230   0.07352   1.000
    O8996   O    0.36436   0.54851   0.07772   1.000
    O8997   O    0.65299   0.40118   0.07328   1.000
    O8998   O    0.16014   0.91784   0.07312   1.000
    O8999   O    0.16651   0.93347   0.07415   1.000
    O9000   O    0.63948   0.54522   0.07780   1.000
    O9001   O    0.90118   0.16771   0.07581   1.000
    O9002   O    0.88765   0.02249   0.07943   1.000
    O9003   O    0.66051   0.58338   0.07306   1.000
    O9004   O    0.66834   0.56845   0.07474   1.000
    O9005   O    0.16038   0.07798   0.07378   1.000
    O9006   O    0.16696   0.06243   0.07498   1.000
    O9007   O    0.09299   0.84137   0.07431   1.000
    O9008   O    0.63855   0.45355   0.07830   1.000
    O9009   O    0.88721   0.97924   0.07972   1.000
    O9010   O    0.97775   0.11238   0.07981   1.000
    O9011   O    0.40582   0.34554   0.07421   1.000
    O9012   O    0.54785   0.63839   0.07866   1.000
    O9013   O    0.58576   0.65987   0.07313   1.000
    O9014   O    0.57076   0.66727   0.07563   1.000
    O9015   O    0.04197   0.86024   0.07866   1.000
    O9016   O    0.02106   0.11167   0.08000   1.000
    O9017   O    0.65912   0.41501   0.07377   1.000
    O9018   O    0.66715   0.42984   0.07496   1.000
    O9019   O    0.83313   0.90230   0.07635   1.000
    O9020   O    0.34348   0.40728   0.07471   1.000
    O9021   O    0.57192   0.33808   0.08257   1.000
    O9022   O    0.45628   0.63882   0.07956   1.000
    O9023   O    0.42015   0.34065   0.07460   1.000
    O9024   O    0.43570   0.33406   0.07587   1.000
    O9025   O    0.09832   0.16546   0.07696   1.000
    O9026   O    0.89999   0.83251   0.07702   1.000
    O9027   O    0.33480   0.60055   0.07709   1.000
    O9028   O    0.45635   0.36413   0.07959   1.000
    O9029   O    0.11013   0.01952   0.08113   1.000
    O9030   O    0.97600   0.88753   0.08120   1.000
    O9031   O    0.36253   0.45833   0.07976   1.000
    O9032   O    0.07862   0.83668   0.07508   1.000
    O9033   O    0.06306   0.83034   0.07686   1.000
    O9034   O    0.82579   0.05774   0.07449   1.000
    O9035   O    0.10965   0.97670   0.08146   1.000
    O9036   O    0.60004   0.66789   0.07773   1.000
    O9037   O    0.61385   0.52128   0.08150   1.000
    O9038   O    0.41824   0.66034   0.07463   1.000
    O9039   O    0.43317   0.66769   0.07761   1.000
    O9040   O    0.01902   0.88667   0.08173   1.000
    O9041   O    0.54397   0.36242   0.08036   1.000
    O9042   O    0.66833   0.59764   0.07794   1.000
    O9043   O    0.33887   0.42169   0.07551   1.000
    O9044   O    0.33257   0.43729   0.07728   1.000
    O9045   O    0.61327   0.47811   0.08176   1.000
    O9046   O    0.17330   0.94691   0.07558   1.000
    O9047   O    0.38986   0.52458   0.08203   1.000
    O9048   O    0.16917   0.90458   0.07890   1.000
    O9049   O    0.52368   0.61300   0.08245   1.000
    O9050   O    0.48065   0.61340   0.08254   1.000
    O9051   O    0.66697   0.40067   0.07860   1.000
    O9052   O    0.81813   0.06988   0.07888   1.000
    O9053   O    0.82506   0.94421   0.07599   1.000
    O9054   O    0.40387   0.66804   0.07947   1.000
    O9055   O    0.67539   0.44242   0.07638   1.000
    O9056   O    0.17388   0.04905   0.07666   1.000
    O9057   O    0.32767   0.55851   0.07622   1.000
    O9058   O    0.05639   0.17327   0.07630   1.000
    O9059   O    0.16883   0.09123   0.08023   1.000
    O9060   O    0.94202   0.82533   0.07646   1.000
    O9061   O    0.38880   0.48144   0.08318   1.000
    O9062   O    0.67639   0.55577   0.07665   1.000
    O9063   O    0.40677   0.33187   0.08029   1.000
    O9064   O    0.44906   0.32710   0.07753   1.000
    O9065   O    0.98972   0.07343   0.08398   1.000
    O9066   O    0.00799   0.07312   0.08401   1.000
    O9067   O    0.09203   0.82806   0.08116   1.000
    O9068   O    0.47873   0.39068   0.08421   1.000
    O9069   O    0.92625   0.00959   0.08411   1.000
    O9070   O    0.92599   0.99126   0.08429   1.000
    O9071   O    0.81751   0.93206   0.08049   1.000
    O9072   O    0.18193   0.93584   0.08090   1.000
    O9073   O    0.33001   0.40828   0.08116   1.000
    O9074   O    0.94327   0.17416   0.07747   1.000
    O9075   O    0.31982   0.57044   0.08081   1.000
    O9076   O    0.06845   0.18088   0.08092   1.000
    O9077   O    0.52153   0.38946   0.08479   1.000
    O9078   O    0.93010   0.81750   0.08106   1.000
    O9079   O    0.07098   0.00779   0.08455   1.000
    O9080   O    0.07090   0.98944   0.08483   1.000
    O9081   O    0.98897   0.92623   0.08465   1.000
    O9082   O    0.00724   0.92583   0.08495   1.000
    O9083   O    0.68306   0.43032   0.08095   1.000
    O9084   O    0.68405   0.56780   0.08127   1.000
    O9085   O    0.55799   0.67498   0.07825   1.000
    O9086   O    0.93123   0.18188   0.08201   1.000
    O9087   O    0.18204   0.06013   0.08255   1.000
    O9088   O    0.57458   0.50922   0.08521   1.000
    O9089   O    0.57463   0.49100   0.08565   1.000
    O9090   O    0.04970   0.82360   0.07903   1.000
    O9091   O    0.82597   0.11180   0.07886   1.000
    O9092   O    0.81800   0.09918   0.08132   1.000
    O9093   O    0.32582   0.45069   0.07941   1.000
    O9094   O    0.43786   0.31865   0.08277   1.000
    O9095   O    0.51081   0.57408   0.08606   1.000
    O9096   O    0.49254   0.57451   0.08633   1.000
    O9097   O    0.57003   0.68273   0.08269   1.000
    O9098   O    0.42816   0.49339   0.08670   1.000
    O9099   O    0.42808   0.51165   0.08671   1.000
    O9100   O    0.88914   0.17545   0.08020   1.000
    O9101   O    0.90190   0.18281   0.08359   1.000
    O9102   O    0.06090   0.81537   0.08468   1.000
    O9103   O    0.82559   0.89014   0.08071   1.000
    O9104   O    0.81754   0.90274   0.08309   1.000
    O9105   O    0.44584   0.67532   0.08072   1.000
    O9106   O    0.31739   0.43948   0.08467   1.000
    O9107   O    0.50982   0.42881   0.08813   1.000
    O9108   O    0.49149   0.42902   0.08823   1.000
    O9109   O    0.11039   0.17307   0.08144   1.000
    O9110   O    0.09772   0.18102   0.08375   1.000
    O9111   O    0.32695   0.61249   0.08157   1.000
    O9112   O    0.31922   0.59968   0.08378   1.000
    O9113   O    0.88806   0.82472   0.08155   1.000
    O9114   O    0.90085   0.81694   0.08390   1.000
    O9115   O    0.43371   0.68279   0.08542   1.000
    O9116   O    0.61208   0.67564   0.08204   1.000
    O9117   O    0.59934   0.68333   0.08482   1.000
    O9118   O    0.67593   0.60968   0.08246   1.000
    O9119   O    0.68404   0.59703   0.08448   1.000
    O9120   O    0.67460   0.38856   0.08306   1.000
    O9121   O    0.68287   0.40111   0.08461   1.000
    O9122   O    0.81025   0.08430   0.08345   1.000
    O9123   O    0.80435   0.07030   0.08450   1.000
    O9124   O    0.17752   0.89355   0.08448   1.000
    O9125   O    0.18463   0.90696   0.08568   1.000
    O9126   O    0.60130   0.28526   0.08871   1.000
    O9127   O    0.39174   0.67551   0.08401   1.000
    O9128   O    0.40439   0.68312   0.08728   1.000
    O9129   O    0.80971   0.91762   0.08515   1.000
    O9130   O    0.80375   0.93161   0.08616   1.000
    O9131   O    0.80206   0.09939   0.08812   1.000
    O9132   O    0.69094   0.41593   0.08576   1.000
    O9133   O    0.69709   0.42987   0.08598   1.000
    O9134   O    0.39562   0.32374   0.08581   1.000
    O9135   O    0.40894   0.31644   0.08722   1.000
    O9136   O    0.31171   0.58463   0.08563   1.000
    O9137   O    0.30602   0.57054   0.08642   1.000
    O9138   O    0.08279   0.18876   0.08572   1.000
    O9139   O    0.06877   0.19464   0.08665   1.000
    O9140   O    0.91591   0.80941   0.08590   1.000
    O9141   O    0.93004   0.80375   0.08683   1.000
    O9142   O    0.17662   0.10225   0.08641   1.000
    O9143   O    0.18393   0.08892   0.08786   1.000
    O9144   O    0.69192   0.58212   0.08613   1.000
    O9145   O    0.69791   0.56810   0.08678   1.000
    O9146   O    0.19102   0.92259   0.08666   1.000
    O9147   O    0.19555   0.93701   0.08701   1.000
    O9148   O    0.32182   0.39709   0.08662   1.000
    O9149   O    0.31480   0.41048   0.08856   1.000
    O9150   O    0.10321   0.82008   0.08704   1.000
    O9151   O    0.08986   0.81305   0.08900   1.000
    O9152   O    0.80158   0.90250   0.08982   1.000
    O9153   O    0.91692   0.18991   0.08669   1.000
    O9154   O    0.93103   0.19527   0.08859   1.000
    O9155   O    0.58434   0.69076   0.08730   1.000
    O9156   O    0.57025   0.69638   0.08866   1.000
    O9157   O    0.30330   0.59945   0.09057   1.000
    O9158   O    0.09781   0.19697   0.09051   1.000
    O9159   O    0.90103   0.80099   0.09079   1.000
    O9160   O    0.42449   0.30981   0.08843   1.000
    O9161   O    0.43885   0.30504   0.08899   1.000
    O9162   O    0.88926   0.01007   0.09461   1.000
    O9163   O    0.69911   0.40086   0.09066   1.000
    O9164   O    0.19056   0.07337   0.08898   1.000
    O9165   O    0.19534   0.05900   0.08936   1.000
    O9166   O    0.88908   0.99169   0.09474   1.000
    O9167   O    0.70009   0.59714   0.09101   1.000
    O9168   O    0.59287   0.29799   0.09061   1.000
    O9169   O    0.58516   0.31381   0.09328   1.000
    O9170   O    0.90196   0.19832   0.09135   1.000
    O9171   O    0.99012   0.11024   0.09492   1.000
    O9172   O    0.00853   0.10996   0.09499   1.000
    O9173   O    0.59932   0.69914   0.09194   1.000
    O9174   O    0.20061   0.90952   0.09302   1.000
    O9175   O    0.10780   0.00734   0.09626   1.000
    O9176   O    0.98828   0.88944   0.09636   1.000
    O9177   O    0.30849   0.42608   0.09030   1.000
    O9178   O    0.30401   0.44051   0.09127   1.000
    O9179   O    0.10759   0.98915   0.09639   1.000
    O9180   O    0.61177   0.50902   0.09654   1.000
    O9181   O    0.79376   0.11211   0.09057   1.000
    O9182   O    0.61152   0.49068   0.09664   1.000
    O9183   O    0.07429   0.80670   0.09075   1.000
    O9184   O    0.05991   0.80216   0.09171   1.000
    O9185   O    0.00656   0.88908   0.09658   1.000
    O9186   O    0.41930   0.69051   0.09025   1.000
    O9187   O    0.43332   0.69614   0.09203   1.000
    O9188   O    0.39150   0.51236   0.09739   1.000
    O9189   O    0.21096   0.88306   0.09376   1.000
    O9190   O    0.41127   0.30046   0.09465   1.000
    O9191   O    0.51144   0.61102   0.09753   1.000
    O9192   O    0.49313   0.61116   0.09756   1.000
    O9193   O    0.38479   0.29047   0.09469   1.000
    O9194   O    0.39103   0.49403   0.09791   1.000
    O9195   O    0.19965   0.08645   0.09592   1.000
    O9196   O    0.40421   0.69863   0.09497   1.000
    O9197   O    0.79337   0.88977   0.09228   1.000
    O9198   O    0.23639   0.86008   0.09670   1.000
    O9199   O    0.36152   0.26550   0.09688   1.000
    O9200   O    0.97728   0.07163   0.09903   1.000
    O9201   O    0.02035   0.07091   0.09907   1.000
    O9202   O    0.92816   0.02204   0.09906   1.000
    O9203   O    0.29903   0.41284   0.09648   1.000
    O9204   O    0.11047   0.20530   0.09299   1.000
    O9205   O    0.29471   0.61192   0.09308   1.000
    O9206   O    0.06894   0.02033   0.09937   1.000
    O9207   O    0.49104   0.39248   0.09949   1.000
    O9208   O    0.88950   0.20701   0.09366   1.000
    O9209   O    0.97651   0.92865   0.09947   1.000
    O9210   O    0.78735   0.10079   0.09732   1.000
    O9211   O    0.92759   0.97883   0.09946   1.000
    O9212   O    0.76179   0.12806   0.09802   1.000
    O9213   O    0.11368   0.78668   0.09670   1.000
    O9214   O    0.13592   0.76068   0.09821   1.000
    O9215   O    0.57806   0.32914   0.09573   1.000
    O9216   O    0.57186   0.34274   0.09693   1.000
    O9217   O    0.08756   0.79752   0.09733   1.000
    O9218   O    0.28857   0.38646   0.09651   1.000
    O9219   O    0.06873   0.97715   0.09998   1.000
    O9220   O    0.70725   0.38808   0.09335   1.000
    O9221   O    0.50927   0.39193   0.09978   1.000
    O9222   O    0.57256   0.52168   0.09998   1.000
    O9223   O    0.01951   0.92774   0.10012   1.000
    O9224   O    0.88846   0.79268   0.09363   1.000
    O9225   O    0.76129   0.87388   0.09889   1.000
    O9226   O    0.61189   0.70761   0.09433   1.000
    O9227   O    0.12574   0.23774   0.09906   1.000
    O9228   O    0.70812   0.60989   0.09385   1.000
    O9229   O    0.26193   0.62617   0.09933   1.000
    O9230   O    0.26353   0.36327   0.09872   1.000
    O9231   O    0.57266   0.47884   0.10093   1.000
    O9232   O    0.52332   0.57170   0.10088   1.000
    O9233   O    0.74016   0.62595   0.09952   1.000
    O9234   O    0.78679   0.90104   0.09888   1.000
    O9235   O    0.48029   0.57264   0.10151   1.000
    O9236   O    0.87551   0.23990   0.10047   1.000
    O9237   O    0.59800   0.28663   0.10290   1.000
    O9238   O    0.20903   0.11308   0.09783   1.000
    O9239   O    0.73920   0.37171   0.09977   1.000
    O9240   O    0.87306   0.76045   0.09997   1.000
    O9241   O    0.43016   0.48124   0.10183   1.000
    O9242   O    0.43007   0.52418   0.10175   1.000
    O9243   O    0.71431   0.39953   0.09909   1.000
    O9244   O    0.09914   0.21176   0.09964   1.000
    O9245   O    0.28869   0.60044   0.09992   1.000
    O9246   O    0.62688   0.74006   0.10082   1.000
    O9247   O    0.90002   0.78599   0.09972   1.000
    O9248   O    0.71523   0.59843   0.09964   1.000
    O9249   O    0.95307   0.04657   0.10178   1.000
    O9250   O    0.90063   0.21249   0.10145   1.000
    O9251   O    0.52234   0.43069   0.10305   1.000
    O9252   O    0.04407   0.04522   0.10195   1.000
    O9253   O    0.62537   0.26131   0.10216   1.000
    O9254   O    0.47909   0.43124   0.10327   1.000
    O9255   O    0.60060   0.71378   0.10132   1.000
    O9256   O    0.95236   0.95424   0.10220   1.000
    O9257   O    0.39155   0.70694   0.09744   1.000
    O9258   O    0.54757   0.54638   0.10289   1.000
    O9259   O    0.04354   0.95290   0.10289   1.000
    O9260   O    0.37690   0.73953   0.10307   1.000
    O9261   O    0.23221   0.13747   0.10200   1.000
    O9262   O    0.45527   0.54830   0.10409   1.000
    O9263   O    0.21202   0.89713   0.09777   1.000
    O9264   O    0.21354   0.91133   0.10109   1.000
    O9265   O    0.22336   0.88477   0.10266   1.000
    O9266   O    0.54706   0.45516   0.10477   1.000
    O9267   O    0.45491   0.45650   0.10513   1.000
    O9268   O    0.39873   0.28925   0.09912   1.000
    O9269   O    0.38616   0.27807   0.10363   1.000
    O9270   O    0.40268   0.71300   0.10475   1.000
    O9271   O    0.58397   0.32089   0.10668   1.000
    O9272   O    0.41282   0.28757   0.10288   1.000
    O9273   O    0.28766   0.40035   0.10104   1.000
    O9274   O    0.27622   0.38785   0.10547   1.000
    O9275   O    0.21054   0.09894   0.10137   1.000
    O9276   O    0.21242   0.08468   0.10434   1.000
    O9277   O    0.28631   0.41441   0.10495   1.000
    O9278   O    0.10002   0.78617   0.10190   1.000
    O9279   O    0.11251   0.77470   0.10623   1.000
    O9280   O    0.22153   0.11154   0.10654   1.000
    O9281   O    0.23572   0.87273   0.10491   1.000
    O9282   O    0.24749   0.86054   0.10675   1.000
    O9283   O    0.90193   0.00992   0.10764   1.000
    O9284   O    0.90167   0.99154   0.10782   1.000
    O9285   O    0.08614   0.78519   0.10645   1.000
    O9286   O    0.98996   0.09743   0.10784   1.000
    O9287   O    0.00831   0.09712   0.10784   1.000
    O9288   O    0.37397   0.26592   0.10547   1.000
    O9289   O    0.36162   0.25434   0.10686   1.000
    O9290   O    0.78139   0.08965   0.10471   1.000
    O9291   O    0.77282   0.10219   0.10686   1.000
    O9292   O    0.09476   0.00764   0.10876   1.000
    O9293   O    0.09469   0.98934   0.10903   1.000
    O9294   O    0.98845   0.90247   0.10890   1.000
    O9295   O    0.00672   0.90205   0.10919   1.000
    O9296   O    0.72098   0.41086   0.10551   1.000
    O9297   O    0.72929   0.39817   0.10791   1.000
    O9298   O    0.59874   0.50921   0.10907   1.000
    O9299   O    0.59881   0.49099   0.10949   1.000
    O9300   O    0.76173   0.11615   0.10752   1.000
    O9301   O    0.75101   0.12943   0.10823   1.000
    O9302   O    0.78064   0.91213   0.10616   1.000
    O9303   O    0.77216   0.89952   0.10820   1.000
    O9304   O    0.12429   0.76206   0.10772   1.000
    O9305   O    0.13623   0.74995   0.10865   1.000
    O9306   O    0.26397   0.37570   0.10728   1.000
    O9307   O    0.25230   0.36338   0.10858   1.000
    O9308   O    0.72200   0.58711   0.10614   1.000
    O9309   O    0.73013   0.59989   0.10853   1.000
    O9310   O    0.91142   0.77968   0.10650   1.000
    O9311   O    0.89892   0.77112   0.10879   1.000
    O9312   O    0.76113   0.88558   0.10858   1.000
    O9313   O    0.75046   0.87229   0.10901   1.000
    O9314   O    0.08800   0.21781   0.10697   1.000
    O9315   O    0.10054   0.22643   0.10892   1.000
    O9316   O    0.51144   0.59791   0.11010   1.000
    O9317   O    0.49313   0.59831   0.11040   1.000
    O9318   O    0.40411   0.49405   0.11051   1.000
    O9319   O    0.40403   0.51232   0.11053   1.000
    O9320   O    0.11428   0.23768   0.10903   1.000
    O9321   O    0.12739   0.24857   0.10916   1.000
    O9322   O    0.28314   0.58917   0.10746   1.000
    O9323   O    0.27425   0.60153   0.10947   1.000
    O9324   O    0.74002   0.38396   0.10872   1.000
    O9325   O    0.75035   0.37039   0.10963   1.000
    O9326   O    0.74079   0.61407   0.10904   1.000
    O9327   O    0.75095   0.62773   0.10968   1.000
    O9328   O    0.26262   0.61494   0.10960   1.000
    O9329   O    0.25139   0.62778   0.10972   1.000
    O9330   O    0.88504   0.76006   0.10935   1.000
    O9331   O    0.87175   0.74943   0.10995   1.000
    O9332   O    0.35122   0.24386   0.10868   1.000
    O9333   O    0.91712   0.02218   0.10977   1.000
    O9334   O    0.92952   0.03322   0.11133   1.000
    O9335   O    0.97738   0.08253   0.10990   1.000
    O9336   O    0.96619   0.07021   0.11137   1.000
    O9337   O    0.02051   0.08183   0.10991   1.000
    O9338   O    0.03144   0.06926   0.11140   1.000
    O9339   O    0.25814   0.85029   0.10897   1.000
    O9340   O    0.74123   0.14070   0.10960   1.000
    O9341   O    0.58952   0.71951   0.10897   1.000
    O9342   O    0.60195   0.72830   0.11084   1.000
    O9343   O    0.13853   0.25847   0.10999   1.000
    O9344   O    0.07975   0.02025   0.11036   1.000
    O9345   O    0.06759   0.03157   0.11158   1.000
    O9346   O    0.91654   0.97892   0.11017   1.000
    O9347   O    0.92883   0.96763   0.11177   1.000
    O9348   O    0.14628   0.73912   0.10999   1.000
    O9349   O    0.61554   0.73974   0.11093   1.000
    O9350   O    0.62850   0.75080   0.11101   1.000
    O9351   O    0.87356   0.25019   0.11106   1.000
    O9352   O    0.88607   0.23857   0.11135   1.000
    O9353   O    0.97631   0.91785   0.11049   1.000
    O9354   O    0.96539   0.93036   0.11176   1.000
    O9355   O    0.23300   0.12418   0.10922   1.000
    O9356   O    0.24390   0.13703   0.11129   1.000
    O9357   O    0.50956   0.40501   0.11233   1.000
    O9358   O    0.49114   0.40523   0.11243   1.000
    O9359   O    0.74074   0.86098   0.11015   1.000
    O9360   O    0.24122   0.63867   0.11055   1.000
    O9361   O    0.91151   0.21748   0.10991   1.000
    O9362   O    0.89921   0.22659   0.11157   1.000
    O9363   O    0.58355   0.52167   0.11081   1.000
    O9364   O    0.57118   0.53273   0.11231   1.000
    O9365   O    0.23610   0.88631   0.11492   1.000
    O9366   O    0.07956   0.97711   0.11096   1.000
    O9367   O    0.06721   0.96608   0.11238   1.000
    O9368   O    0.01932   0.91693   0.11113   1.000
    O9369   O    0.03051   0.92921   0.11252   1.000
    O9370   O    0.63758   0.23946   0.11177   1.000
    O9371   O    0.24177   0.35300   0.11030   1.000
    O9372   O    0.86294   0.26069   0.11151   1.000
    O9373   O    0.94224   0.04525   0.11214   1.000
    O9374   O    0.95426   0.05742   0.11216   1.000
    O9375   O    0.76019   0.63939   0.11103   1.000
    O9376   O    0.04314   0.05619   0.11224   1.000
    O9377   O    0.05498   0.04381   0.11227   1.000
    O9378   O    0.86048   0.73974   0.11117   1.000
    O9379   O    0.38728   0.26525   0.11589   1.000
    O9380   O    0.52364   0.58253   0.11181   1.000
    O9381   O    0.53454   0.56992   0.11306   1.000
    O9382   O    0.58366   0.47884   0.11174   1.000
    O9383   O    0.57117   0.46803   0.11354   1.000
    O9384   O    0.95353   0.94332   0.11252   1.000
    O9385   O    0.94150   0.95552   0.11258   1.000
    O9386   O    0.75982   0.35886   0.11117   1.000
    O9387   O    0.63951   0.76084   0.11181   1.000
    O9388   O    0.62741   0.25044   0.11223   1.000
    O9389   O    0.61547   0.26256   0.11360   1.000
    O9390   O    0.48058   0.58345   0.11247   1.000
    O9391   O    0.46938   0.57122   0.11399   1.000
    O9392   O    0.41914   0.52448   0.11258   1.000
    O9393   O    0.43177   0.53526   0.11406   1.000
    O9394   O    0.05442   0.95414   0.11323   1.000
    O9395   O    0.04240   0.94201   0.11329   1.000
    O9396   O    0.55843   0.54480   0.11323   1.000
    O9397   O    0.54641   0.55700   0.11353   1.000
    O9398   O    0.41924   0.48154   0.11265   1.000
    O9399   O    0.43158   0.47044   0.11444   1.000
    O9400   O    0.37472   0.75011   0.11329   1.000
    O9401   O    0.38758   0.73893   0.11387   1.000
    O9402   O    0.36380   0.76019   0.11340   1.000
    O9403   O    0.26328   0.38899   0.11764   1.000
    O9404   O    0.41360   0.71863   0.11276   1.000
    O9405   O    0.40105   0.72739   0.11435   1.000
    O9406   O    0.52225   0.41988   0.11407   1.000
    O9407   O    0.53365   0.43204   0.11517   1.000
    O9408   O    0.45712   0.55875   0.11475   1.000
    O9409   O    0.44472   0.54699   0.11475   1.000
    O9410   O    0.47891   0.42045   0.11429   1.000
    O9411   O    0.46797   0.43305   0.11550   1.000
    O9412   O    0.76021   0.10346   0.11861   1.000
    O9413   O    0.11190   0.76246   0.11914   1.000
    O9414   O    0.55816   0.45637   0.11486   1.000
    O9415   O    0.54584   0.44455   0.11545   1.000
    O9416   O    0.36262   0.24198   0.11857   1.000
    O9417   O    0.25975   0.86197   0.11850   1.000
    O9418   O    0.23503   0.10993   0.11813   1.000
    O9419   O    0.44423   0.45831   0.11555   1.000
    O9420   O    0.45613   0.44599   0.11591   1.000
    O9421   O    0.25381   0.14784   0.11362   1.000
    O9422   O    0.60308   0.27526   0.11519   1.000
    O9423   O    0.59405   0.28755   0.11696   1.000
    O9424   O    0.74239   0.39703   0.11914   1.000
    O9425   O    0.75948   0.89803   0.11984   1.000
    O9426   O    0.73884   0.13003   0.12013   1.000
    O9427   O    0.74297   0.60143   0.12010   1.000
    O9428   O    0.89784   0.75811   0.12024   1.000
    O9429   O    0.23985   0.36437   0.12016   1.000
    O9430   O    0.10208   0.23910   0.12061   1.000
    O9431   O    0.13578   0.73810   0.12096   1.000
    O9432   O    0.73824   0.87141   0.12082   1.000
    O9433   O    0.12833   0.26082   0.12094   1.000
    O9434   O    0.26191   0.60295   0.12151   1.000
    O9435   O    0.76296   0.36985   0.12109   1.000
    O9436   O    0.23950   0.62866   0.12185   1.000
    O9437   O    0.76313   0.62883   0.12155   1.000
    O9438   O    0.87120   0.73694   0.12156   1.000
    O9439   O    0.60347   0.74087   0.12266   1.000
    O9440   O    0.62942   0.76295   0.12290   1.000
    O9441   O    0.87226   0.26179   0.12345   1.000
    O9442   O    0.25700   0.13560   0.12210   1.000
    O9443   O    0.89730   0.23858   0.12398   1.000
    O9444   O    0.62920   0.23854   0.12436   1.000
    O9445   O    0.93049   0.04494   0.12427   1.000
    O9446   O    0.95437   0.06919   0.12431   1.000
    O9447   O    0.04331   0.06809   0.12428   1.000
    O9448   O    0.06685   0.04344   0.12433   1.000
    O9449   O    0.95369   0.93147   0.12460   1.000
    O9450   O    0.92970   0.95570   0.12474   1.000
    O9451   O    0.37317   0.76216   0.12525   1.000
    O9452   O    0.57024   0.54420   0.12535   1.000
    O9453   O    0.06626   0.95435   0.12533   1.000
    O9454   O    0.04235   0.93017   0.12545   1.000
    O9455   O    0.54633   0.56848   0.12596   1.000
    O9456   O    0.33921   0.21221   0.12374   1.000
    O9457   O    0.39895   0.73977   0.12633   1.000
    O9458   O    0.70922   0.84586   0.12480   1.000
    O9459   O    0.60540   0.26286   0.12713   1.000
    O9460   O    0.15426   0.28928   0.12470   1.000
    O9461   O    0.57022   0.45659   0.12672   1.000
    O9462   O    0.70978   0.15555   0.12478   1.000
    O9463   O    0.29031   0.83933   0.12446   1.000
    O9464   O    0.20965   0.34120   0.12459   1.000
    O9465   O    0.45806   0.57006   0.12727   1.000
    O9466   O    0.43333   0.54671   0.12725   1.000
    O9467   O    0.79117   0.65524   0.12576   1.000
    O9468   O    0.79198   0.34417   0.12545   1.000
    O9469   O    0.43265   0.45922   0.12782   1.000
    O9470   O    0.54573   0.43302   0.12791   1.000
    O9471   O    0.28679   0.15890   0.12552   1.000
    O9472   O    0.45627   0.43461   0.12850   1.000
    O9473   O    0.15938   0.70944   0.12611   1.000
    O9474   O    0.65492   0.79172   0.12646   1.000
    O9475   O    0.21169   0.65495   0.12657   1.000
    O9476   O    0.65541   0.21007   0.12735   1.000
    O9477   O    0.84632   0.29009   0.12739   1.000
    O9478   O    0.84379   0.71043   0.12742   1.000
    O9479   O    0.34656   0.78864   0.12815   1.000
    O9480   O    0.23744   0.89778   0.12479   1.000
    O9481   O    0.24827   0.88771   0.12675   1.000
    O9482   O    0.39849   0.26368   0.12608   1.000
    O9483   O    0.38826   0.25299   0.12769   1.000
    O9484   O    0.23787   0.09783   0.12698   1.000
    O9485   O    0.24804   0.10854   0.12913   1.000
    O9486   O    0.26164   0.40019   0.12776   1.000
    O9487   O    0.25090   0.38995   0.12932   1.000
    O9488   O    0.26014   0.87556   0.12850   1.000
    O9489   O    0.27253   0.86320   0.13052   1.000
    O9490   O    0.37595   0.24130   0.12898   1.000
    O9491   O    0.36342   0.22907   0.13048   1.000
    O9492   O    0.75774   0.09274   0.12899   1.000
    O9493   O    0.74800   0.10402   0.13038   1.000
    O9494   O    0.74563   0.40807   0.12889   1.000
    O9495   O    0.75507   0.39655   0.13045   1.000
    O9496   O    0.10153   0.76185   0.13019   1.000
    O9497   O    0.11146   0.75073   0.13154   1.000
    O9498   O    0.75689   0.90853   0.13037   1.000
    O9499   O    0.74720   0.89721   0.13152   1.000
    O9500   O    0.23914   0.37765   0.13053   1.000
    O9501   O    0.22683   0.36509   0.13193   1.000
    O9502   O    0.74603   0.59077   0.13041   1.000
    O9503   O    0.75528   0.60244   0.13178   1.000
    O9504   O    0.90866   0.75524   0.13041   1.000
    O9505   O    0.89736   0.74554   0.13171   1.000
    O9506   O    0.73735   0.11732   0.13119   1.000
    O9507   O    0.72620   0.13085   0.13237   1.000
    O9508   O    0.09181   0.24149   0.13139   1.000
    O9509   O    0.10298   0.25139   0.13228   1.000
    O9510   O    0.76529   0.38294   0.13150   1.000
    O9511   O    0.77598   0.36908   0.13296   1.000
    O9512   O    0.73662   0.88389   0.13206   1.000
    O9513   O    0.72556   0.87032   0.13297   1.000
    O9514   O    0.25909   0.12137   0.13103   1.000
    O9515   O    0.27078   0.13443   0.13291   1.000
    O9516   O    0.11612   0.26222   0.13250   1.000
    O9517   O    0.12951   0.27358   0.13300   1.000
    O9518   O    0.12340   0.73848   0.13243   1.000
    O9519   O    0.13540   0.72611   0.13327   1.000
    O9520   O    0.88402   0.73499   0.13243   1.000
    O9521   O    0.87034   0.72402   0.13352   1.000
    O9522   O    0.76528   0.61618   0.13260   1.000
    O9523   O    0.77555   0.63033   0.13391   1.000
    O9524   O    0.26016   0.59282   0.13261   1.000
    O9525   O    0.24998   0.60377   0.13354   1.000
    O9526   O    0.35160   0.21564   0.13229   1.000
    O9527   O    0.34259   0.20342   0.13545   1.000
    O9528   O    0.23880   0.61665   0.13375   1.000
    O9529   O    0.22707   0.62976   0.13420   1.000
    O9530   O    0.28627   0.85168   0.13279   1.000
    O9531   O    0.29870   0.84301   0.13636   1.000
    O9532   O    0.59329   0.74301   0.13360   1.000
    O9533   O    0.60434   0.75306   0.13446   1.000
    O9534   O    0.21326   0.35333   0.13345   1.000
    O9535   O    0.20099   0.34429   0.13639   1.000
    O9536   O    0.61733   0.76407   0.13462   1.000
    O9537   O    0.63056   0.77564   0.13504   1.000
    O9538   O    0.14232   0.28632   0.13404   1.000
    O9539   O    0.15221   0.29802   0.13672   1.000
    O9540   O    0.71332   0.14356   0.13395   1.000
    O9541   O    0.70151   0.15322   0.13712   1.000
    O9542   O    0.71272   0.85758   0.13425   1.000
    O9543   O    0.70101   0.84782   0.13722   1.000
    O9544   O    0.25928   0.88821   0.13681   1.000
    O9545   O    0.28400   0.14643   0.13423   1.000
    O9546   O    0.29611   0.15572   0.13682   1.000
    O9547   O    0.78871   0.35622   0.13455   1.000
    O9548   O    0.80047   0.34647   0.13767   1.000
    O9549   O    0.87073   0.27397   0.13605   1.000
    O9550   O    0.88349   0.26180   0.13608   1.000
    O9551   O    0.38838   0.24190   0.13770   1.000
    O9552   O    0.14710   0.71307   0.13482   1.000
    O9553   O    0.15624   0.70086   0.13793   1.000
    O9554   O    0.78774   0.64359   0.13541   1.000
    O9555   O    0.79866   0.65410   0.13875   1.000
    O9556   O    0.90674   0.23971   0.13574   1.000
    O9557   O    0.89604   0.25020   0.13632   1.000
    O9558   O    0.04462   0.07825   0.13534   1.000
    O9559   O    0.05534   0.06770   0.13642   1.000
    O9560   O    0.07691   0.04410   0.13554   1.000
    O9561   O    0.06704   0.05543   0.13644   1.000
    O9562   O    0.92058   0.04562   0.13557   1.000
    O9563   O    0.93061   0.05681   0.13654   1.000
    O9564   O    0.95334   0.07927   0.13548   1.000
    O9565   O    0.94248   0.06889   0.13657   1.000
    O9566   O    0.21441   0.64261   0.13552   1.000
    O9567   O    0.20268   0.65243   0.13830   1.000
    O9568   O    0.64318   0.78855   0.13597   1.000
    O9569   O    0.65294   0.80038   0.13854   1.000
    O9570   O    0.95289   0.92148   0.13585   1.000
    O9571   O    0.94183   0.93163   0.13684   1.000
    O9572   O    0.91960   0.95469   0.13594   1.000
    O9573   O    0.92986   0.94366   0.13692   1.000
    O9574   O    0.63122   0.22613   0.13675   1.000
    O9575   O    0.61912   0.23886   0.13788   1.000
    O9576   O    0.85689   0.71211   0.13549   1.000
    O9577   O    0.84641   0.70118   0.13897   1.000
    O9578   O    0.25978   0.10814   0.13844   1.000
    O9579   O    0.37164   0.77440   0.13715   1.000
    O9580   O    0.38456   0.76303   0.13772   1.000
    O9581   O    0.07627   0.95355   0.13658   1.000
    O9582   O    0.06621   0.94242   0.13758   1.000
    O9583   O    0.64372   0.21298   0.13706   1.000
    O9584   O    0.65347   0.20101   0.13920   1.000
    O9585   O    0.23971   0.39004   0.13921   1.000
    O9586   O    0.58022   0.54465   0.13664   1.000
    O9587   O    0.57015   0.55576   0.13783   1.000
    O9588   O    0.85812   0.28693   0.13693   1.000
    O9589   O    0.84837   0.29880   0.13940   1.000
    O9590   O    0.04345   0.92002   0.13662   1.000
    O9591   O    0.05433   0.93037   0.13764   1.000
    O9592   O    0.35878   0.78645   0.13750   1.000
    O9593   O    0.34859   0.79803   0.13959   1.000
    O9594   O    0.54741   0.57827   0.13738   1.000
    O9595   O    0.55827   0.56785   0.13814   1.000
    O9596   O    0.40848   0.74163   0.13790   1.000
    O9597   O    0.39747   0.75182   0.13822   1.000
    O9598   O    0.73710   0.10517   0.14036   1.000
    O9599   O    0.76635   0.39544   0.14006   1.000
    O9600   O    0.58039   0.45588   0.13782   1.000
    O9601   O    0.57012   0.44500   0.13927   1.000
    O9602   O    0.36282   0.21581   0.14274   1.000
    O9603   O    0.28550   0.86298   0.14308   1.000
    O9604   O    0.73624   0.89582   0.14143   1.000
    O9605   O    0.42376   0.54742   0.13889   1.000
    O9606   O    0.43431   0.55811   0.13992   1.000
    O9607   O    0.45781   0.57973   0.13880   1.000
    O9608   O    0.44664   0.56971   0.13994   1.000
    O9609   O    0.60727   0.25106   0.13928   1.000
    O9610   O    0.59715   0.26210   0.13974   1.000
    O9611   O    0.89622   0.73436   0.14149   1.000
    O9612   O    0.11175   0.74014   0.14206   1.000
    O9613   O    0.76625   0.60408   0.14175   1.000
    O9614   O    0.54680   0.42313   0.13932   1.000
    O9615   O    0.55795   0.43324   0.13987   1.000
    O9616   O    0.42275   0.45894   0.13915   1.000
    O9617   O    0.43286   0.44786   0.14056   1.000
    O9618   O    0.10444   0.26236   0.14219   1.000
    O9619   O    0.21354   0.36421   0.14421   1.000
    O9620   O    0.45532   0.42502   0.14015   1.000
    O9621   O    0.44457   0.43557   0.14089   1.000
    O9622   O    0.71373   0.13297   0.14504   1.000
    O9623   O    0.28462   0.13519   0.14466   1.000
    O9624   O    0.13188   0.28652   0.14522   1.000
    O9625   O    0.71311   0.86781   0.14561   1.000
    O9626   O    0.78857   0.36687   0.14552   1.000
    O9627   O    0.13613   0.71330   0.14550   1.000
    O9628   O    0.23930   0.60519   0.14376   1.000
    O9629   O    0.86839   0.71073   0.14555   1.000
    O9630   O    0.60577   0.76396   0.14446   1.000
    O9631   O    0.21393   0.63169   0.14628   1.000
    O9632   O    0.78717   0.63371   0.14718   1.000
    O9633   O    0.63292   0.78857   0.14731   1.000
    O9634   O    0.86842   0.28701   0.14830   1.000
    O9635   O    0.89425   0.26066   0.14676   1.000
    O9636   O    0.06804   0.06791   0.14858   1.000
    O9637   O    0.63361   0.21268   0.14853   1.000
    O9638   O    0.93001   0.06916   0.14893   1.000
    O9639   O    0.33162   0.18659   0.14103   1.000
    O9640   O    0.31269   0.16703   0.14154   1.000
    O9641   O    0.36933   0.78757   0.14858   1.000
    O9642   O    0.92957   0.93093   0.14915   1.000
    O9643   O    0.18419   0.33330   0.14171   1.000
    O9644   O    0.16440   0.31436   0.14189   1.000
    O9645   O    0.16440   0.33110   0.14791   1.000
    O9646   O    0.17215   0.32358   0.15532   1.000
    O9647   O    0.34818   0.19624   0.14760   1.000
    O9648   O    0.06696   0.92995   0.14985   1.000
    O9649   O    0.39553   0.76256   0.14829   1.000
    O9650   O    0.57084   0.56779   0.15035   1.000
    O9651   O    0.19388   0.34951   0.14868   1.000
    O9652   O    0.30400   0.15032   0.14861   1.000
    O9653   O    0.31581   0.83252   0.14248   1.000
    O9654   O    0.30540   0.84889   0.14860   1.000
    O9655   O    0.68463   0.83605   0.14294   1.000
    O9656   O    0.66503   0.81685   0.14347   1.000
    O9657   O    0.66511   0.83365   0.14975   1.000
    O9658   O    0.67276   0.82566   0.15673   1.000
    O9659   O    0.33614   0.81417   0.14379   1.000
    O9660   O    0.14787   0.30523   0.14929   1.000
    O9661   O    0.68501   0.16505   0.14298   1.000
    O9662   O    0.66546   0.18442   0.14378   1.000
    O9663   O    0.66842   0.16470   0.14962   1.000
    O9664   O    0.67633   0.17225   0.15672   1.000
    O9665   O    0.16728   0.68415   0.14330   1.000
    O9666   O    0.18623   0.66441   0.14342   1.000
    O9667   O    0.16914   0.66444   0.14919   1.000
    O9668   O    0.17698   0.67157   0.15683   1.000
    O9669   O    0.60947   0.24042   0.14948   1.000
    O9670   O    0.81701   0.33462   0.14345   1.000
    O9671   O    0.83648   0.31525   0.14418   1.000
    O9672   O    0.83391   0.33481   0.14989   1.000
    O9673   O    0.82590   0.32745   0.15713   1.000
    O9674   O    0.69485   0.14859   0.14989   1.000
    O9675   O    0.69436   0.85203   0.15011   1.000
    O9676   O    0.57080   0.43295   0.15191   1.000
    O9677   O    0.80738   0.35113   0.15031   1.000
    O9678   O    0.15101   0.69376   0.15025   1.000
    O9679   O    0.19518   0.64760   0.15052   1.000
    O9680   O    0.43485   0.57001   0.15282   1.000
    O9681   O    0.64870   0.80749   0.15121   1.000
    O9682   O    0.64939   0.19355   0.15173   1.000
    O9683   O    0.83336   0.68595   0.14512   1.000
    O9684   O    0.85143   0.69327   0.15092   1.000
    O9685   O    0.43225   0.43605   0.15339   1.000
    O9686   O    0.35282   0.80608   0.15166   1.000
    O9687   O    0.85261   0.30599   0.15201   1.000
    O9688   O    0.81361   0.66722   0.14529   1.000
    O9689   O    0.80460   0.65074   0.15227   1.000
    O9690   O    0.83174   0.66930   0.15177   1.000
    O9691   O    0.09653   0.07125   0.15129   1.000
    O9692   O    0.92557   0.90252   0.15182   1.000
    O9693   O    0.90155   0.07230   0.15258   1.000
    O9694   O    0.09540   0.92620   0.15283   1.000
    O9695   O    0.59917   0.57203   0.15305   1.000
    O9696   O    0.59920   0.42873   0.15458   1.000
    O9697   O    0.36055   0.20367   0.15218   1.000
    O9698   O    0.37227   0.21274   0.15459   1.000
    O9699   O    0.29746   0.86110   0.15284   1.000
    O9700   O    0.28798   0.87259   0.15488   1.000
    O9701   O    0.42601   0.40824   0.15752   1.000
    O9702   O    0.40693   0.57550   0.15762   1.000
    O9703   O    0.20139   0.36168   0.15360   1.000
    O9704   O    0.21057   0.37328   0.15636   1.000
    O9705   O    0.29714   0.13776   0.15353   1.000
    O9706   O    0.28847   0.12578   0.15637   1.000
    O9707   O    0.35050   0.16989   0.16325   1.000
    O9708   O    0.86485   0.69897   0.15507   1.000
    O9709   O    0.87767   0.70644   0.15716   1.000
    O9710   O    0.70221   0.13624   0.15486   1.000
    O9711   O    0.71102   0.12439   0.15757   1.000
    O9712   O    0.13547   0.29832   0.15461   1.000
    O9713   O    0.12351   0.28984   0.15772   1.000
    O9714   O    0.13873   0.70120   0.15503   1.000
    O9715   O    0.12698   0.71022   0.15763   1.000
    O9716   O    0.80021   0.36356   0.15523   1.000
    O9717   O    0.79154   0.37549   0.15792   1.000
    O9718   O    0.70164   0.86420   0.15537   1.000
    O9719   O    0.71037   0.87599   0.15836   1.000
    O9720   O    0.35604   0.18679   0.16377   1.000
    O9721   O    0.20193   0.63495   0.15552   1.000
    O9722   O    0.21026   0.62276   0.15833   1.000
    O9723   O    0.31414   0.85721   0.16493   1.000
    O9724   O    0.33119   0.85209   0.16497   1.000
    O9725   O    0.31457   0.14332   0.16407   1.000
    O9726   O    0.18445   0.35643   0.16490   1.000
    O9727   O    0.63648   0.80039   0.15669   1.000
    O9728   O    0.62468   0.79174   0.15994   1.000
    O9729   O    0.79768   0.63833   0.15756   1.000
    O9730   O    0.78940   0.62619   0.16054   1.000
    O9731   O    0.14150   0.31461   0.16606   1.000
    O9732   O    0.36545   0.79985   0.15731   1.000
    O9733   O    0.37775   0.79195   0.16083   1.000
    O9734   O    0.86483   0.29893   0.15759   1.000
    O9735   O    0.87672   0.29032   0.16091   1.000
    O9736   O    0.63728   0.20054   0.15755   1.000
    O9737   O    0.62551   0.20912   0.16117   1.000
    O9738   O    0.68614   0.14158   0.16684   1.000
    O9739   O    0.14417   0.68435   0.16651   1.000
    O9740   O    0.08257   0.07298   0.15690   1.000
    O9741   O    0.06761   0.07566   0.16429   1.000
    O9742   O    0.81650   0.35823   0.16695   1.000
    O9743   O    0.68563   0.85810   0.16702   1.000
    O9744   O    0.85847   0.68319   0.16720   1.000
    O9745   O    0.18531   0.64054   0.16671   1.000
    O9746   O    0.09690   0.07761   0.16479   1.000
    O9747   O    0.91569   0.07413   0.15774   1.000
    O9748   O    0.93086   0.07698   0.16466   1.000
    O9749   O    0.92441   0.91648   0.15757   1.000
    O9750   O    0.92242   0.93144   0.16517   1.000
    O9751   O    0.92005   0.90215   0.16567   1.000
    O9752   O    0.64243   0.81677   0.16815   1.000
    O9753   O    0.08138   0.92465   0.15832   1.000
    O9754   O    0.06633   0.92213   0.16559   1.000
    O9755   O    0.90158   0.07870   0.16606   1.000
    O9756   O    0.35856   0.81687   0.16738   1.000
    O9757   O    0.64380   0.18388   0.16833   1.000
    O9758   O    0.09560   0.91977   0.16633   1.000
    O9759   O    0.58520   0.57298   0.15881   1.000
    O9760   O    0.57019   0.57474   0.16638   1.000
    O9761   O    0.85850   0.31550   0.16862   1.000
    O9762   O    0.59939   0.57780   0.16680   1.000
    O9763   O    0.81212   0.64621   0.17020   1.000
    O9764   O    0.58525   0.42772   0.16036   1.000
    O9765   O    0.57028   0.42586   0.16798   1.000
    O9766   O    0.59952   0.42303   0.16839   1.000
    O9767   O    0.42132   0.57583   0.16232   1.000
    O9768   O    0.43693   0.57709   0.16871   1.000
    O9769   O    0.42585   0.42252   0.16247   1.000
    O9770   O    0.42472   0.43804   0.16905   1.000
    O9771   O    0.41908   0.40929   0.17072   1.000
    O9772   O    0.40806   0.58187   0.17110   1.000
    O9773   O    0.34295   0.17692   0.17125   1.000
    O9774   O    0.32398   0.84451   0.17274   1.000
    O9775   O    0.94378   0.07995   0.17196   1.000
    O9776   O    0.05489   0.07848   0.17197   1.000
    O9777   O    0.06699   0.08297   0.17961   1.000
    O9778   O    0.93190   0.08440   0.17993   1.000
    O9779   O    0.10900   0.08195   0.17243   1.000
    O9780   O    0.09631   0.08491   0.18009   1.000
    O9781   O    0.92028   0.94415   0.17305   1.000
    O9782   O    0.91607   0.93206   0.18091   1.000
    O9783   O    0.05353   0.91943   0.17317   1.000
    O9784   O    0.06552   0.91472   0.18090   1.000
    O9785   O    0.84463   0.67660   0.17530   1.000
    O9786   O    0.33464   0.14339   0.18268   1.000
    O9787   O    0.91604   0.89006   0.17352   1.000
    O9788   O    0.91379   0.90273   0.18143   1.000
    O9789   O    0.35708   0.16724   0.18287   1.000
    O9790   O    0.88970   0.08297   0.17406   1.000
    O9791   O    0.90260   0.08609   0.18132   1.000
    O9792   O    0.10759   0.91522   0.17407   1.000
    O9793   O    0.09482   0.91238   0.18162   1.000
    O9794   O    0.55741   0.57668   0.17421   1.000
    O9795   O    0.56937   0.58129   0.18199   1.000
    O9796   O    0.61135   0.58230   0.17454   1.000
    O9797   O    0.59860   0.58439   0.18238   1.000
    O9798   O    0.16554   0.35660   0.18464   1.000
    O9799   O    0.45036   0.57877   0.17551   1.000
    O9800   O    0.33313   0.85907   0.18458   1.000
    O9801   O    0.42307   0.45139   0.17595   1.000
    O9802   O    0.55756   0.42383   0.17589   1.000
    O9803   O    0.56960   0.41932   0.18367   1.000
    O9804   O    0.43929   0.58433   0.18390   1.000
    O9805   O    0.61157   0.41869   0.17618   1.000
    O9806   O    0.14236   0.33360   0.18552   1.000
    O9807   O    0.59888   0.41650   0.18406   1.000
    O9808   O    0.41687   0.44033   0.18393   1.000
    O9809   O    0.14347   0.66470   0.18558   1.000
    O9810   O    0.16570   0.64064   0.18553   1.000
    O9811   O    0.35725   0.83700   0.18558   1.000
    O9812   O    0.83538   0.35857   0.18649   1.000
    O9813   O    0.66728   0.85801   0.18688   1.000
    O9814   O    0.66768   0.14138   0.18681   1.000
    O9815   O    0.85722   0.66441   0.18708   1.000
    O9816   O    0.64471   0.16453   0.18749   1.000
    O9817   O    0.64342   0.83579   0.18769   1.000
    O9818   O    0.41258   0.39829   0.17835   1.000
    O9819   O    0.41118   0.41159   0.18562   1.000
    O9820   O    0.85809   0.33508   0.18754   1.000
    O9821   O    0.39702   0.58768   0.17920   1.000
    O9822   O    0.41042   0.58914   0.18631   1.000
    O9823   O    0.83034   0.64619   0.18973   1.000
    O9824   O    0.08136   0.08759   0.18752   1.000
    O9825   O    0.06732   0.08913   0.19315   1.000
    O9826   O    0.09641   0.09214   0.19579   1.000
    O9827   O    0.91775   0.08895   0.18827   1.000
    O9828   O    0.93195   0.09068   0.19346   1.000
    O9829   O    0.07979   0.90985   0.18893   1.000
    O9830   O    0.06569   0.90845   0.19445   1.000
    O9831   O    0.90293   0.09339   0.19702   1.000
    O9832   O    0.91180   0.91767   0.18907   1.000
    O9833   O    0.91078   0.93172   0.19484   1.000
    O9834   O    0.09473   0.90510   0.19734   1.000
    O9835   O    0.90761   0.90261   0.19759   1.000
    O9836   O    0.58359   0.58613   0.19000   1.000
    O9837   O    0.56954   0.58684   0.19579   1.000
    O9838   O    0.59847   0.59106   0.19830   1.000
    O9839   O    0.58392   0.41464   0.19172   1.000
    O9840   O    0.56990   0.41380   0.19754   1.000
    O9841   O    0.41011   0.42711   0.19224   1.000
    O9842   O    0.40977   0.44144   0.19704   1.000
    O9843   O    0.42604   0.59034   0.19272   1.000
    O9844   O    0.44046   0.59085   0.19730   1.000
    O9845   O    0.59889   0.40995   0.20012   1.000
    O9846   O    0.35078   0.15049   0.19209   1.000
    O9847   O    0.36310   0.15585   0.19910   1.000
    O9848   O    0.34650   0.13784   0.19922   1.000
    O9849   O    0.40286   0.41402   0.20108   1.000
    O9850   O    0.41295   0.59690   0.20208   1.000
    O9851   O    0.34971   0.85321   0.19439   1.000
    O9852   O    0.34407   0.86561   0.20100   1.000
    O9853   O    0.14940   0.64791   0.19472   1.000
    O9854   O    0.15398   0.63512   0.20151   1.000
    O9855   O    0.14974   0.34983   0.19477   1.000
    O9856   O    0.15487   0.36207   0.20200   1.000
    O9857   O    0.36225   0.84912   0.20186   1.000
    O9858   O    0.13706   0.65290   0.20188   1.000
    O9859   O    0.13772   0.34458   0.20233   1.000
    O9860   O    0.85149   0.35173   0.19631   1.000
    O9861   O    0.84651   0.36448   0.20278   1.000
    O9862   O    0.65167   0.14825   0.19670   1.000
    O9863   O    0.65698   0.13583   0.20362   1.000
    O9864   O    0.65120   0.85177   0.19687   1.000
    O9865   O    0.65683   0.86396   0.20379   1.000
    O9866   O    0.86380   0.34710   0.20382   1.000
    O9867   O    0.84826   0.64984   0.19755   1.000
    O9868   O    0.86197   0.65233   0.20346   1.000
    O9869   O    0.63948   0.15302   0.20423   1.000
    O9870   O    0.63890   0.84731   0.20447   1.000
    O9871   O    0.84160   0.63887   0.20561   1.000
    O9872   O    0.10902   0.09441   0.20423   1.000
    O9873   O    0.09783   0.10163   0.21030   1.000
    O9874   O    0.89060   0.09549   0.20587   1.000
    O9875   O    0.90180   0.10297   0.21156   1.000
    O9876   O    0.10726   0.90268   0.20588   1.000
    O9877   O    0.09600   0.89559   0.21196   1.000
    O9878   O    0.90577   0.88997   0.20618   1.000
    O9879   O    0.89888   0.90119   0.21256   1.000
    O9880   O    0.37500   0.15904   0.20762   1.000
    O9881   O    0.36673   0.14640   0.21089   1.000
    O9882   O    0.34448   0.12570   0.20791   1.000
    O9883   O    0.35635   0.13513   0.21098   1.000
    O9884   O    0.61100   0.59360   0.20675   1.000
    O9885   O    0.59954   0.60026   0.21296   1.000
    O9886   O    0.40216   0.38765   0.21112   1.000
    O9887   O    0.34058   0.87766   0.20914   1.000
    O9888   O    0.35325   0.86948   0.21293   1.000
    O9889   O    0.61144   0.40777   0.20874   1.000
    O9890   O    0.60016   0.40068   0.21480   1.000
    O9891   O    0.15648   0.62288   0.20972   1.000
    O9892   O    0.14436   0.63191   0.21323   1.000
    O9893   O    0.38663   0.59726   0.21245   1.000
    O9894   O    0.12512   0.65562   0.21057   1.000
    O9895   O    0.13376   0.64301   0.21350   1.000
    O9896   O    0.37417   0.84724   0.21079   1.000
    O9897   O    0.36463   0.85917   0.21347   1.000
    O9898   O    0.39766   0.40156   0.21203   1.000
    O9899   O    0.39381   0.41565   0.21339   1.000
    O9900   O    0.15786   0.37376   0.21101   1.000
    O9901   O    0.14588   0.36459   0.21443   1.000
    O9902   O    0.84365   0.37680   0.21070   1.000
    O9903   O    0.85585   0.36805   0.21463   1.000
    O9904   O    0.12620   0.34151   0.21137   1.000
    O9905   O    0.13517   0.35363   0.21460   1.000
    O9906   O    0.87493   0.65281   0.21107   1.000
    O9907   O    0.86404   0.64274   0.21550   1.000
    O9908   O    0.40057   0.60164   0.21338   1.000
    O9909   O    0.41467   0.60538   0.21476   1.000
    O9910   O    0.66019   0.12387   0.21206   1.000
    O9911   O    0.64796   0.13264   0.21581   1.000
    O9912   O    0.66026   0.87581   0.21227   1.000
    O9913   O    0.64793   0.86731   0.21601   1.000
    O9914   O    0.87567   0.34475   0.21276   1.000
    O9915   O    0.86669   0.35718   0.21531   1.000
    O9916   O    0.62782   0.15559   0.21329   1.000
    O9917   O    0.63699   0.14338   0.21621   1.000
    O9918   O    0.62723   0.84501   0.21361   1.000
    O9919   O    0.63672   0.85689   0.21645   1.000
    O9920   O    0.83728   0.62798   0.21499   1.000
    O9921   O    0.85129   0.63431   0.21683   1.000
    O9922   O    0.39286   0.38898   0.22316   1.000
    O9923   O    0.08686   0.10955   0.21594   1.000
    O9924   O    0.91276   0.11118   0.21683   1.000
    O9925   O    0.38812   0.60623   0.22475   1.000
    O9926   O    0.09933   0.11111   0.22478   1.000
    O9927   O    0.08498   0.88775   0.21763   1.000
    O9928   O    0.89130   0.91221   0.21852   1.000
    O9929   O    0.90050   0.11253   0.22601   1.000
    O9930   O    0.58827   0.60764   0.21874   1.000
    O9931   O    0.09745   0.88621   0.22652   1.000
    O9932   O    0.88975   0.89969   0.22729   1.000
    O9933   O    0.60076   0.60972   0.22740   1.000
    O9934   O    0.58911   0.39287   0.22039   1.000
    O9935   O    0.60154   0.39108   0.22926   1.000
    O9936   O    0.39091   0.37680   0.23525   1.000
    O9937   O    0.38033   0.38998   0.23572   1.000
    O9938   O    0.39967   0.36448   0.23583   1.000
    O9939   O    0.11282   0.11072   0.23632   1.000
    O9940   O    0.10116   0.12295   0.23729   1.000
    O9941   O    0.37601   0.60814   0.23695   1.000
    O9942   O    0.38938   0.61842   0.23762   1.000
    O9943   O    0.12377   0.10013   0.23681   1.000
    O9944   O    0.36352   0.59965   0.23739   1.000
    O9945   O    0.88757   0.11170   0.23806   1.000
    O9946   O    0.89839   0.12466   0.23826   1.000
    O9947   O    0.37002   0.40108   0.23712   1.000
    O9948   O    0.11071   0.88690   0.23824   1.000
    O9949   O    0.09960   0.87420   0.23896   1.000
    O9950   O    0.61433   0.60985   0.23879   1.000
    O9951   O    0.60236   0.62179   0.23966   1.000
    O9952   O    0.89009   0.88609   0.23880   1.000
    O9953   O    0.87802   0.89788   0.23983   1.000
    O9954   O    0.12115   0.89791   0.23895   1.000
    O9955   O    0.90051   0.87501   0.23915   1.000
    O9956   O    0.62554   0.59955   0.23932   1.000
    O9957   O    0.40066   0.62848   0.23924   1.000
    O9958   O    0.87741   0.10048   0.23924   1.000
    O9959   O    0.09137   0.13432   0.23925   1.000
    O9960   O    0.90746   0.13666   0.23958   1.000
    O9961   O    0.61490   0.39121   0.24097   1.000
    O9962   O    0.60339   0.37888   0.24145   1.000
    O9963   O    0.09028   0.86244   0.24072   1.000
    O9964   O    0.62572   0.40182   0.24182   1.000
    O9965   O    0.38959   0.36443   0.24681   1.000
    O9966   O    0.59227   0.63290   0.24152   1.000
    O9967   O    0.86677   0.90777   0.24184   1.000
    O9968   O    0.12566   0.11026   0.24754   1.000
    O9969   O    0.36836   0.39076   0.24782   1.000
    O9970   O    0.59370   0.36741   0.24297   1.000
    O9971   O    0.36369   0.60955   0.24856   1.000
    O9972   O    0.10230   0.13470   0.24948   1.000
    O9973   O    0.12343   0.88764   0.24954   1.000
    O9974   O    0.87517   0.11085   0.24968   1.000
    O9975   O    0.39043   0.63013   0.24995   1.000
    O9976   O    0.62737   0.61002   0.24973   1.000
    O9977   O    0.89037   0.87314   0.24994   1.000
    O9978   O    0.89680   0.13678   0.25009   1.000
    O9979   O    0.10122   0.86224   0.25099   1.000
    O9980   O    0.60341   0.63389   0.25147   1.000
    O9981   O    0.86621   0.89674   0.25194   1.000
    O9982   O    0.62767   0.39130   0.25227   1.000
    O9983   O    0.60463   0.36663   0.25317   1.000
    O9984   O    0.38796   0.35401   0.25716   1.000
    O9985   O    0.37775   0.36523   0.25904   1.000
    O9986   O    0.13651   0.11054   0.25783   1.000
    O9987   O    0.12681   0.12206   0.25971   1.000
    O9988   O    0.35820   0.39072   0.25874   1.000
    O9989   O    0.36710   0.37838   0.25957   1.000
    O9990   O    0.35332   0.61136   0.25903   1.000
    O9991   O    0.36476   0.62115   0.26094   1.000
    O9992   O    0.10406   0.14468   0.26040   1.000
    O9993   O    0.11512   0.13427   0.26068   1.000
    O9994   O    0.13427   0.88759   0.25978   1.000
    O9995   O    0.12512   0.87560   0.26151   1.000
    O9996   O    0.63849   0.61094   0.25965   1.000
    O9997   O    0.62850   0.62224   0.26148   1.000
    O9998   O    0.86461   0.11082   0.26017   1.000
    O9999   O    0.87350   0.12305   0.26144   1.000
    O10000  O    0.88993   0.86214   0.26004   1.000
    O10001  O    0.87846   0.87194   0.26209   1.000
    O10002  O    0.89471   0.14703   0.26069   1.000
    O10003  O    0.88432   0.13601   0.26164   1.000
    O10004  O    0.39057   0.64007   0.26110   1.000
    O10005  O    0.37812   0.63145   0.26166   1.000
    O10006  O    0.10335   0.85211   0.26177   1.000
    O10007  O    0.11402   0.86289   0.26224   1.000
    O10008  O    0.60503   0.64417   0.26206   1.000
    O10009  O    0.61651   0.63417   0.26235   1.000
    O10010  O    0.85620   0.89516   0.26266   1.000
    O10011  O    0.86637   0.88375   0.26306   1.000
    O10012  O    0.63856   0.39066   0.26245   1.000
    O10013  O    0.62902   0.37892   0.26400   1.000
    O10014  O    0.60632   0.35623   0.26361   1.000
    O10015  O    0.61749   0.36657   0.26443   1.000
    O10016  O    0.08930   0.99844   0.09051   1.000
    O10017  O    0.90765   0.00064   0.08945   1.000
    O10018  O    0.99909   0.09169   0.08948   1.000
    O10019  O    0.99779   0.90765   0.09064   1.000
    O10020  O    0.09101   0.99790   0.90861   1.000
    O10021  O    0.91024   0.00012   0.90609   1.000
    O10022  O    0.09170   0.08946   0.99906   1.000
    O10023  O    0.08939   0.90598   0.00094   1.000
    O10024  O    0.90939   0.09185   0.99689   1.000
    O10025  O    0.90788   0.90910   0.99816   1.000
    O10026  O    0.00134   0.09106   0.90683   1.000
    O10027  O    0.99973   0.90695   0.90853   1.000
    O10028  O    0.00149   0.40893   0.40936   1.000
    O10029  O    0.99971   0.59235   0.41069   1.000
    O10030  O    0.90876   0.50025   0.40948   1.000
    O10031  O    0.09117   0.50114   0.40847   1.000
    O10032  O    0.00142   0.40833   0.58958   1.000
    O10033  O    0.00065   0.58992   0.59115   1.000
    O10034  O    0.90853   0.40850   0.49940   1.000
    O10035  O    0.09381   0.40952   0.49922   1.000
    O10036  O    0.90858   0.59154   0.50073   1.000
    O10037  O    0.09203   0.59134   0.50079   1.000
    O10038  O    0.90931   0.49896   0.59102   1.000
    O10039  O    0.09267   0.49927   0.59135   1.000
    O10040  O    0.50068   0.90970   0.40920   1.000
    O10041  O    0.49839   0.09101   0.40857   1.000
    O10042  O    0.40776   0.99955   0.40808   1.000
    O10043  O    0.59130   0.00161   0.40957   1.000
    O10044  O    0.50016   0.90855   0.59150   1.000
    O10045  O    0.49755   0.09096   0.59270   1.000
    O10046  O    0.40927   0.90827   0.49949   1.000
    O10047  O    0.59139   0.91025   0.50110   1.000
    O10048  O    0.40726   0.08925   0.50002   1.000
    O10049  O    0.58948   0.09165   0.50117   1.000
    O10050  O    0.40830   0.99893   0.59198   1.000
    O10051  O    0.58973   0.00120   0.59219   1.000
    O10052  O    0.49966   0.40934   0.90935   1.000
    O10053  O    0.50175   0.59062   0.90745   1.000
    O10054  O    0.40917   0.50111   0.90999   1.000
    O10055  O    0.59195   0.49903   0.90940   1.000
    O10056  O    0.50040   0.41060   0.09395   1.000
    O10057  O    0.50200   0.59268   0.09189   1.000
    O10058  O    0.40877   0.41098   0.00219   1.000
    O10059  O    0.58971   0.40805   0.00159   1.000
    O10060  O    0.41208   0.59370   0.99991   1.000
    O10061  O    0.59181   0.59101   0.00012   1.000
    O10062  O    0.40969   0.50284   0.09218   1.000
    O10063  O    0.59314   0.49999   0.09100   1.000
loop_
    _geom_bond_atom_site_label_1
    _geom_bond_atom_site_label_2
    _geom_bond_distance
    _geom_bond_site_symmetry_2
    _ccdc_geom_bond_type
    C2622  O4672     0.54032      .   S
    C2608  O4672     0.54032      .   S
    C2613  O4673     0.70360      .   S
    C2608  O4673     0.70360      .   S
    C2613  O4674     0.70320      .   S
    C2612  O4674     0.70320      .   S
    C2613  O4675     0.74460      .   S
    C341   O4675     0.74460      .   S
    C3669  O4676     0.70544      .   S
    C3664  O4676     0.70544      .   S
    C3669  O4677     0.70517      .   S
    C3668  O4677     0.70517      .   S
    C3669  O4678     0.70675      .   S
    C445   O4678     0.70675      .   S
    C3549  O4679     0.70570      .   S
    C3544  O4679     0.70570      .   S
    C3549  O4680     0.70524      .   S
    C3548  O4680     0.70524      .   S
    C3549  O4681     0.70673      .   S
    C575   O4681     0.70673      .   S
    C3558  O4682     0.53956      .   S
    C3544  O4682     0.53956      .   S
    C3645  O4683     0.70591      .   S
    C3640  O4683     0.70591      .   S
    C3645  O4684     0.70463      .   S
    C3644  O4684     0.70463      .   S
    C3645  O4685     0.70623      .   S
    C471   O4685     0.70623      .   S
    C3678  O4686     0.54033      .   S
    C3664  O4686     0.54033      .   S
    C3654  O4687     0.53990      .   S
    C3640  O4687     0.53990      .   S
    C2697  O4688     0.54096      .   S
    C2684  O4688     0.54096      .   S
    C2685  O4689     0.70335      .   S
    C2684  O4689     0.70335      .   S
    C2685  O4690     0.70296      .   S
    C2680  O4690     0.70296      .   S
    C2685  O4691     0.74416      .   S
    C263   O4691     0.74416      .   S
    C3681  O4692     0.54020      .   S
    C3668  O4692     0.54020      .   S
    C3573  O4693     0.70527      .   S
    C3568  O4693     0.70527      .   S
    C3573  O4694     0.70522      .   S
    C3572  O4694     0.70522      .   S
    C3573  O4695     0.70628      .   S
    C549   O4695     0.70628      .   S
    C2625  O4696     0.54065      .   S
    C2612  O4696     0.54065      .   S
    C2589  O4697     0.70316      .   S
    C2584  O4697     0.70316      .   S
    C2589  O4698     0.70287      .   S
    C2588  O4698     0.70287      .   S
    C2589  O4699     0.74231      .   S
    C367   O4699     0.74231      .   S
    C3561  O4700     0.54071      .   S
    C3548  O4700     0.54071      .   S
    C2709  O4701     0.70318      .   S
    C2708  O4701     0.70318      .   S
    C2709  O4702     0.70321      .   S
    C2704  O4702     0.70321      .   S
    C2709  O4703     0.74291      .   S
    C237   O4703     0.74291      .   S
    C2608  O4704     0.69807      .   S
    C2609  O4704     0.69807      .   S
    C3582  O4705     0.54012      .   S
    C3568  O4705     0.54012      .   S
    C2598  O4706     0.54032      .   S
    C2584  O4706     0.54032      .   S
    C3657  O4707     0.54047      .   S
    C3644  O4707     0.54047      .   S
    C2721  O4708     0.54083      .   S
    C2708  O4708     0.54083      .   S
    C2601  O4709     0.54056      .   S
    C2588  O4709     0.54056      .   S
    C3585  O4710     0.54074      .   S
    C3572  O4710     0.54074      .   S
    C3544  O4711     0.69710      .   S
    C3545  O4711     0.69710      .   S
    C2718  O4712     0.54033      .   S
    C2704  O4712     0.54033      .   S
    C3664  O4713     0.69895      .   S
    C3665  O4713     0.69895      .   S
    C2612  O4714     0.70044      .   S
    C2611  O4714     0.70044      .   S
    C3640  O4715     0.69707      .   S
    C3641  O4715     0.69707      .   S
    C3668  O4716     0.69876      .   S
    C3667  O4716     0.69876      .   S
    C3548  O4717     0.70084      .   S
    C3547  O4717     0.70084      .   S
    C2694  O4718     0.54058      .   S
    C2680  O4718     0.54058      .   S
    C2684  O4719     0.70160      .   S
    C2683  O4719     0.70160      .   S
    C3644  O4720     0.70032      .   S
    C3643  O4720     0.70032      .   S
    C3568  O4721     0.69751      .   S
    C3569  O4721     0.69751      .   S
    C2584  O4722     0.69811      .   S
    C2585  O4722     0.69811      .   S
    C2588  O4723     0.69898      .   S
    C2587  O4723     0.69898      .   S
    C3572  O4724     0.69935      .   S
    C3571  O4724     0.69935      .   S
    C2708  O4725     0.69937      .   S
    C2707  O4725     0.69937      .   S
    C2704  O4726     0.69718      .   S
    C2705  O4726     0.69718      .   S
    C2680  O4727     0.69751      .   S
    C2681  O4727     0.69751      .   S
    C2609  O4728     0.54176      .   S
    C2623  O4728     0.54176      .   S
    C2609  O4729     0.70065      .   S
    C2610  O4729     0.70065      .   S
    C3545  O4730     0.54180      .   S
    C3559  O4730     0.54180      .   S
    C3545  O4731     0.69952      .   S
    C3546  O4731     0.69952      .   S
    C3665  O4732     0.54171      .   S
    C3679  O4732     0.54171      .   S
    C3665  O4733     0.70083      .   S
    C3666  O4733     0.70083      .   S
    C3641  O4734     0.54184      .   S
    C3655  O4734     0.54184      .   S
    C3641  O4735     0.69951      .   S
    C3642  O4735     0.69951      .   S
    C2611  O4736     0.70438      .   S
    C2610  O4736     0.70438      .   S
    C2611  O4737     0.54054      .   S
    C2624  O4737     0.54054      .   S
    C3667  O4738     0.54075      .   S
    C3680  O4738     0.54075      .   S
    C3667  O4739     0.70302      .   S
    C3666  O4739     0.70302      .   S
    C3547  O4740     0.54060      .   S
    C3560  O4740     0.54060      .   S
    C3547  O4741     0.70403      .   S
    C3546  O4741     0.70403      .   S
    C3643  O4742     0.54062      .   S
    C3656  O4742     0.54062      .   S
    C3643  O4743     0.70361      .   S
    C3642  O4743     0.70361      .   S
    C2683  O4744     0.54033      .   S
    C2696  O4744     0.54033      .   S
    C2683  O4745     0.70534      .   S
    C2682  O4745     0.70534      .   S
    C2585  O4746     0.54188      .   S
    C2599  O4746     0.54188      .   S
    C2585  O4747     0.70116      .   S
    C2586  O4747     0.70116      .   S
    C3569  O4748     0.54189      .   S
    C3583  O4748     0.54189      .   S
    C3569  O4749     0.69999      .   S
    C3570  O4749     0.69999      .   S
    C2587  O4750     0.54047      .   S
    C2600  O4750     0.54047      .   S
    C2587  O4751     0.70376      .   S
    C2586  O4751     0.70376      .   S
    C3571  O4752     0.54076      .   S
    C3584  O4752     0.54076      .   S
    C3571  O4753     0.70336      .   S
    C3570  O4753     0.70336      .   S
    C2707  O4754     0.54084      .   S
    C2720  O4754     0.54084      .   S
    C2707  O4755     0.70393      .   S
    C2706  O4755     0.70393      .   S
    C2705  O4756     0.54209      .   S
    C2719  O4756     0.54209      .   S
    C2705  O4757     0.70078      .   S
    C2706  O4757     0.70078      .   S
    C2681  O4758     0.70099      .   S
    C2682  O4758     0.70099      .   S
    C2681  O4759     0.54152      .   S
    C2695  O4759     0.54152      .   S
    C2610  O4760     0.74347      .   S
    C2614  O4760     0.74347      .   S
    C3546  O4761     0.74221      .   S
    C3550  O4761     0.74221      .   S
    C3666  O4762     0.74230      .   S
    C3670  O4762     0.74230      .   S
    C3642  O4763     0.74149      .   S
    C3646  O4763     0.74149      .   S
    C2586  O4764     0.74133      .   S
    C2590  O4764     0.74133      .   S
    C3570  O4765     0.74121      .   S
    C3574  O4765     0.74121      .   S
    C2682  O4766     0.74356      .   S
    C2686  O4766     0.74356      .   S
    C2706  O4767     0.74125      .   S
    C2710  O4767     0.74125      .   S
    C2614  O4768     0.54048      .   S
    C2626  O4768     0.54048      .   S
    C2614  O4769     0.67079      .   S
    C2615  O4769     0.67079      .   S
    C3     O4770     0.69312      .   S
    C4     O4770     0.69312      .   S
    C3     O4771     0.69784      .   S
    C2     O4771     0.69784      .   S
    C3     O4772     0.70670      .   S
    C2541  O4772     0.70670      .   S
    C3550  O4773     0.54084      .   S
    C3562  O4773     0.54084      .   S
    C3550  O4774     0.67012      .   S
    C3551  O4774     0.67012      .   S
    C3670  O4775     0.54078      .   S
    C3682  O4775     0.54078      .   S
    C3670  O4776     0.67096      .   S
    C3671  O4776     0.67096      .   S
    C185   O4777     0.69429      .   S
    C184   O4777     0.69429      .   S
    C185   O4778     0.69250      .   S
    C186   O4778     0.69250      .   S
    C185   O4779     0.74145      .   S
    C2373  O4779     0.74145      .   S
    C187   O4780     0.54079      .   S
    C184   O4780     0.54079      .   S
    C3646  O4781     0.54070      .   S
    C3658  O4781     0.54070      .   S
    C3646  O4782     0.67016      .   S
    C3647  O4782     0.67016      .   S
    C107   O4783     0.69184      .   S
    C108   O4783     0.69184      .   S
    C107   O4784     0.69441      .   S
    C106   O4784     0.69441      .   S
    C107   O4785     0.74180      .   S
    C2445  O4785     0.74180      .   S
    C2699  O4786     0.54074      .   S
    C2687  O4786     0.54074      .   S
    C705   O4787     0.69386      .   S
    C706   O4787     0.69386      .   S
    C705   O4788     0.69419      .   S
    C704   O4788     0.69419      .   S
    C705   O4789     0.74495      .   S
    C3813  O4789     0.74495      .   S
    C81    O4790     0.69729      .   S
    C82    O4790     0.69729      .   S
    C81    O4791     0.69323      .   S
    C80    O4791     0.69323      .   S
    C81    O4792     0.70753      .   S
    C2469  O4792     0.70753      .   S
    C809   O4793     0.69340      .   S
    C810   O4793     0.69340      .   S
    C809   O4794     0.69401      .   S
    C808   O4794     0.69401      .   S
    C809   O4795     0.74395      .   S
    C3717  O4795     0.74395      .   S
    C627   O4796     0.69517      .   S
    C626   O4796     0.69517      .   S
    C627   O4797     0.69242      .   S
    C628   O4797     0.69242      .   S
    C627   O4798     0.74473      .   S
    C3885  O4798     0.74473      .   S
    C2603  O4799     0.54077      .   S
    C2591  O4799     0.54077      .   S
    C3587  O4800     0.54128      .   S
    C3575  O4800     0.54128      .   S
    C2723  O4801     0.54116      .   S
    C2711  O4801     0.54116      .   S
    C731   O4802     0.69418      .   S
    C730   O4802     0.69418      .   S
    C731   O4803     0.69736      .   S
    C732   O4803     0.69736      .   S
    C731   O4804     0.70678      .   S
    C3789  O4804     0.70678      .   S
    C2590  O4805     0.67105      .   S
    C2591  O4805     0.67105      .   S
    C2590  O4806     0.54068      .   S
    C2602  O4806     0.54068      .   S
    C3574  O4807     0.67034      .   S
    C3575  O4807     0.67034      .   S
    C3574  O4808     0.54093      .   S
    C3586  O4808     0.54093      .   S
    C6     O4809     0.53915      .   S
    C4     O4809     0.53915      .   S
    C2686  O4810     0.67125      .   S
    C2687  O4810     0.67125      .   S
    C2686  O4811     0.54026      .   S
    C2698  O4811     0.54026      .   S
    C2710  O4812     0.67076      .   S
    C2711  O4812     0.67076      .   S
    C2710  O4813     0.54069      .   S
    C2722  O4813     0.54069      .   S
    C812   O4814     0.53974      .   S
    C810   O4814     0.53974      .   S
    C708   O4815     0.53994      .   S
    C706   O4815     0.53994      .   S
    C184   O4816     0.67349      .   S
    C183   O4816     0.67349      .   S
    C5     O4817     0.54029      .   S
    C2     O4817     0.54029      .   S
    C110   O4818     0.53990      .   S
    C108   O4818     0.53990      .   S
    C84    O4819     0.54037      .   S
    C82    O4819     0.54037      .   S
    C629   O4820     0.54038      .   S
    C626   O4820     0.54038      .   S
    C109   O4821     0.54001      .   S
    C106   O4821     0.54001      .   S
    C4     O4822     0.67033      .   S
    C0     O4822     0.67033      .   S
    C733   O4823     0.53986      .   S
    C730   O4823     0.53986      .   S
    C83    O4824     0.53885      .   S
    C80    O4824     0.53885      .   S
    C630   O4825     0.54010      .   S
    C628   O4825     0.54010      .   S
    C707   O4826     0.54002      .   S
    C704   O4826     0.54002      .   S
    C2     O4827     0.67560      .   S
    C1     O4827     0.67560      .   S
    C734   O4828     0.54010      .   S
    C732   O4828     0.54010      .   S
    C811   O4829     0.53990      .   S
    C808   O4829     0.53990      .   S
    C810   O4830     0.67244      .   S
    C806   O4830     0.67244      .   S
    C2591  O4831     0.74161      .   S
    C2592  O4831     0.74161      .   S
    C2687  O4832     0.74524      .   S
    C2688  O4832     0.74524      .   S
    C706   O4833     0.67331      .   S
    C702   O4833     0.67331      .   S
    C108   O4834     0.67142      .   S
    C104   O4834     0.67142      .   S
    C3575  O4835     0.74149      .   S
    C3576  O4835     0.74149      .   S
    C82    O4836     0.67531      .   S
    C78    O4836     0.67531      .   S
    C106   O4837     0.67333      .   S
    C105   O4837     0.67333      .   S
    C2711  O4838     0.74221      .   S
    C2712  O4838     0.74221      .   S
    C626   O4839     0.67476      .   S
    C625   O4839     0.67476      .   S
    C80    O4840     0.67088      .   S
    C79    O4840     0.67088      .   S
    C704   O4841     0.67398      .   S
    C703   O4841     0.67398      .   S
    C2627  O4842     0.54112      .   S
    C2615  O4842     0.54112      .   S
    C628   O4843     0.67145      .   S
    C624   O4843     0.67145      .   S
    C730   O4844     0.67122      .   S
    C729   O4844     0.67122      .   S
    C3683  O4845     0.54109      .   S
    C3671  O4845     0.54109      .   S
    C2615  O4846     0.74351      .   S
    C2616  O4846     0.74351      .   S
    C3563  O4847     0.54075      .   S
    C3551  O4847     0.54075      .   S
    C808   O4848     0.67342      .   S
    C807   O4848     0.67342      .   S
    C732   O4849     0.67439      .   S
    C728   O4849     0.67439      .   S
    C3671  O4850     0.74196      .   S
    C3672  O4850     0.74196      .   S
    C3551  O4851     0.74254      .   S
    C3552  O4851     0.74254      .   S
    C186   O4852     0.54049      .   S
    C188   O4852     0.54049      .   S
    C186   O4853     0.67170      .   S
    C182   O4853     0.67170      .   S
    C3659  O4854     0.54091      .   S
    C3647  O4854     0.54091      .   S
    C3647  O4855     0.74230      .   S
    C3648  O4855     0.74230      .   S
    C2700  O4856     0.54155      .   S
    C2689  O4856     0.54155      .   S
    C2631  O4857     0.54017      .   S
    C2621  O4857     0.54017      .   S
    C3588  O4858     0.54191      .   S
    C3577  O4858     0.54191      .   S
    C3567  O4859     0.54055      .   S
    C3557  O4859     0.54055      .   S
    C2724  O4860     0.54154      .   S
    C2713  O4860     0.54154      .   S
    C3687  O4861     0.54027      .   S
    C3677  O4861     0.54027      .   S
    C2604  O4862     0.54195      .   S
    C2593  O4862     0.54195      .   S
    C3663  O4863     0.54046      .   S
    C3653  O4863     0.54046      .   S
    C183   O4864     0.65635      .   S
    C182   O4864     0.65635      .   S
    C183   O4865     0.97264      .   S
    C189   O4865     0.97264      .   S
    C0     O4866     0.65640      .   S
    C1     O4866     0.65640      .   S
    C0     O4867     0.96722      .   S
    C8     O4867     0.96722      .   S
    C1     O4868     0.97982      .   S
    C7     O4868     0.97982      .   S
    C104   O4869     0.65614      .   S
    C105   O4869     0.65614      .   S
    C104   O4870     0.96809      .   S
    C112   O4870     0.96809      .   S
    C702   O4871     0.65707      .   S
    C703   O4871     0.65707      .   S
    C702   O4872     0.97470      .   S
    C710   O4872     0.97470      .   S
    C806   O4873     0.65693      .   S
    C807   O4873     0.65693      .   S
    C806   O4874     0.97404      .   S
    C814   O4874     0.97404      .   S
    C78    O4875     0.65622      .   S
    C79    O4875     0.65622      .   S
    C78    O4876     0.98164      .   S
    C86    O4876     0.98164      .   S
    C105   O4877     0.97233      .   S
    C111   O4877     0.97233      .   S
    C79    O4878     0.96871      .   S
    C85    O4878     0.96871      .   S
    C703   O4879     0.97496      .   S
    C709   O4879     0.97496      .   S
    C729   O4880     0.65617      .   S
    C728   O4880     0.65617      .   S
    C729   O4881     0.96591      .   S
    C735   O4881     0.96591      .   S
    C625   O4882     0.65708      .   S
    C624   O4882     0.65708      .   S
    C625   O4883     0.97911      .   S
    C631   O4883     0.97911      .   S
    C728   O4884     0.97957      .   S
    C736   O4884     0.97957      .   S
    C624   O4885     0.97239      .   S
    C632   O4885     0.97239      .   S
    C807   O4886     0.97322      .   S
    C813   O4886     0.97322      .   S
    C182   O4887     0.96937      .   S
    C190   O4887     0.96937      .   S
    C2688  O4888     0.70226      .   S
    C2689  O4888     0.70226      .   S
    C2688  O4889     0.70524      .   S
    C2693  O4889     0.70524      .   S
    C2592  O4890     0.70187      .   S
    C2593  O4890     0.70187      .   S
    C2592  O4891     0.70458      .   S
    C2597  O4891     0.70458      .   S
    C3576  O4892     0.70185      .   S
    C3577  O4892     0.70185      .   S
    C3576  O4893     0.70430      .   S
    C3581  O4893     0.70430      .   S
    C2712  O4894     0.70184      .   S
    C2713  O4894     0.70184      .   S
    C2712  O4895     0.70450      .   S
    C2717  O4895     0.70450      .   S
    C2689  O4896     0.69909      .   S
    C2690  O4896     0.69909      .   S
    C2616  O4897     0.70532      .   S
    C2621  O4897     0.70532      .   S
    C2616  O4898     0.70164      .   S
    C2617  O4898     0.70164      .   S
    C3577  O4899     0.69859      .   S
    C3578  O4899     0.69859      .   S
    C2621  O4900     0.70045      .   S
    C2620  O4900     0.70045      .   S
    C3672  O4901     0.70471      .   S
    C3677  O4901     0.70471      .   S
    C3672  O4902     0.70165      .   S
    C3673  O4902     0.70165      .   S
    C2713  O4903     0.69854      .   S
    C2714  O4903     0.69854      .   S
    C2593  O4904     0.69879      .   S
    C2594  O4904     0.69879      .   S
    C3552  O4905     0.70509      .   S
    C3557  O4905     0.70509      .   S
    C3552  O4906     0.70125      .   S
    C3553  O4906     0.70125      .   S
    C3677  O4907     0.69985      .   S
    C3676  O4907     0.69985      .   S
    C3557  O4908     0.69966      .   S
    C3556  O4908     0.69966      .   S
    C3648  O4909     0.70497      .   S
    C3653  O4909     0.70497      .   S
    C3648  O4910     0.70112      .   S
    C3649  O4910     0.70112      .   S
    C3653  O4911     0.70000      .   S
    C3652  O4911     0.70000      .   S
    C189   O4912     0.97212      .   S
    C192   O4912     0.97212      .   S
    C2607  O4913     0.54014      .   S
    C2597  O4913     0.54014      .   S
    C2597  O4914     0.69811      .   S
    C2596  O4914     0.69811      .   S
    C2693  O4915     0.54024      .   S
    C2703  O4915     0.54024      .   S
    C2693  O4916     0.69991      .   S
    C2692  O4916     0.69991      .   S
    C8     O4917     0.97922      .   S
    C18    O4917     0.97922      .   S
    C3591  O4918     0.54058      .   S
    C3581  O4918     0.54058      .   S
    C3581  O4919     0.69854      .   S
    C3580  O4919     0.69854      .   S
    C2727  O4920     0.54029      .   S
    C2717  O4920     0.54029      .   S
    C2717  O4921     0.69889      .   S
    C2716  O4921     0.69889      .   S
    C735   O4922     0.96650      .   S
    C738   O4922     0.96650      .   S
    C814   O4923     1.03252      .   S
    C830   O4923     1.03252      .   S
    C814   O4924     0.98562      .   S
    C824   O4924     0.98562      .   S
    C814   O4925     1.03280      .   S
    C831   O4925     1.03280      .   S
    C710   O4926     1.03171      .   S
    C726   O4926     1.03171      .   S
    C710   O4927     0.98684      .   S
    C720   O4927     0.98684      .   S
    C710   O4928     1.03340      .   S
    C727   O4928     1.03340      .   S
    C86    O4929     1.02841      .   S
    C102   O4929     1.02841      .   S
    C86    O4930     0.99282      .   S
    C96    O4930     0.99282      .   S
    C86    O4931     1.02955      .   S
    C103   O4931     1.02955      .   S
    C112   O4932     0.97891      .   S
    C122   O4932     0.97891      .   S
    C85    O4933     0.96929      .   S
    C88    O4933     0.96929      .   S
    C2628  O4934     0.54208      .   S
    C2617  O4934     0.54208      .   S
    C2690  O4935     0.54152      .   S
    C2701  O4935     0.54152      .   S
    C2690  O4936     0.70246      .   S
    C2691  O4936     0.70246      .   S
    C2617  O4937     0.69779      .   S
    C2618  O4937     0.69779      .   S
    C3684  O4938     0.54139      .   S
    C3673  O4938     0.54139      .   S
    C3673  O4939     0.69797      .   S
    C3674  O4939     0.69797      .   S
    C111   O4940     0.97065      .   S
    C114   O4940     0.97065      .   S
    C632   O4941     1.02686      .   S
    C648   O4941     1.02686      .   S
    C632   O4942     0.98498      .   S
    C642   O4942     0.98498      .   S
    C632   O4943     1.02782      .   S
    C649   O4943     1.02782      .   S
    C3578  O4944     0.54163      .   S
    C3589  O4944     0.54163      .   S
    C3578  O4945     0.70245      .   S
    C3579  O4945     0.70245      .   S
    C7     O4946     0.97893      .   S
    C10    O4946     0.97893      .   S
    C736   O4947     1.03120      .   S
    C752   O4947     1.03120      .   S
    C736   O4948     1.03204      .   S
    C753   O4948     1.03204      .   S
    C736   O4949     0.99083      .   S
    C746   O4949     0.99083      .   S
    C631   O4950     0.97976      .   S
    C634   O4950     0.97976      .   S
    C709   O4951     0.97499      .   S
    C712   O4951     0.97499      .   S
    C2630  O4952     0.54149      .   S
    C2620  O4952     0.54149      .   S
    C2620  O4953     0.70207      .   S
    C2619  O4953     0.70207      .   S
    C2714  O4954     0.54168      .   S
    C2725  O4954     0.54168      .   S
    C2714  O4955     0.70206      .   S
    C2715  O4955     0.70206      .   S
    C3553  O4956     0.54152      .   S
    C3564  O4956     0.54152      .   S
    C3553  O4957     0.69809      .   S
    C3554  O4957     0.69809      .   S
    C2594  O4958     0.54127      .   S
    C2605  O4958     0.54127      .   S
    C2594  O4959     0.70177      .   S
    C2595  O4959     0.70177      .   S
    C3676  O4960     0.54135      .   S
    C3686  O4960     0.54135      .   S
    C3676  O4961     0.70250      .   S
    C3675  O4961     0.70250      .   S
    C3566  O4962     0.54169      .   S
    C3556  O4962     0.54169      .   S
    C3556  O4963     0.70190      .   S
    C3555  O4963     0.70190      .   S
    C813   O4964     0.97361      .   S
    C816   O4964     0.97361      .   S
    C3649  O4965     0.54166      .   S
    C3660  O4965     0.54166      .   S
    C3649  O4966     0.69743      .   S
    C3650  O4966     0.69743      .   S
    C3662  O4967     0.54159      .   S
    C3652  O4967     0.54159      .   S
    C206   O4968     1.02124      .   S
    C190   O4968     1.02124      .   S
    C3652  O4969     0.70177      .   S
    C3651  O4969     0.70177      .   S
    C190   O4970     0.98177      .   S
    C200   O4970     0.98177      .   S
    C24    O4971     1.02803      .   S
    C9     O4971     1.02803      .   S
    C128   O4972     1.02493      .   S
    C113   O4972     1.02493      .   S
    C198   O4973     0.53992      .   S
    C196   O4973     0.53992      .   S
    C828   O4974     0.54018      .   S
    C825   O4974     0.54018      .   S
    C22    O4975     0.53964      .   S
    C19    O4975     0.53964      .   S
    C724   O4976     0.54005      .   S
    C721   O4976     0.54005      .   S
    C744   O4977     0.53995      .   S
    C742   O4977     0.53995      .   S
    C94    O4978     0.53924      .   S
    C92    O4978     0.53924      .   S
    C120   O4979     0.53980      .   S
    C118   O4979     0.53980      .   S
    C2692  O4980     0.70166      .   S
    C2691  O4980     0.70166      .   S
    C2692  O4981     0.54162      .   S
    C2702  O4981     0.54162      .   S
    C3580  O4982     0.70207      .   S
    C3579  O4982     0.70207      .   S
    C3580  O4983     0.54140      .   S
    C3590  O4983     0.54140      .   S
    C2596  O4984     0.70179      .   S
    C2595  O4984     0.70179      .   S
    C2596  O4985     0.54148      .   S
    C2606  O4985     0.54148      .   S
    C126   O4986     0.53972      .   S
    C123   O4986     0.53972      .   S
    C2716  O4987     0.70159      .   S
    C2715  O4987     0.70159      .   S
    C2716  O4988     0.54160      .   S
    C2726  O4988     0.54160      .   S
    C100   O4989     0.54034      .   S
    C97    O4989     0.54034      .   S
    C2691  O4990     0.74293      .   S
    C1391  O4990     0.74293      .   S
    C646   O4991     0.54010      .   S
    C643   O4991     0.54010      .   S
    C3579  O4992     0.74134      .   S
    C1757  O4992     0.74134      .   S
    C192   O4993     0.67219      .   S
    C196   O4993     0.67219      .   S
    C192   O4994     0.65688      .   S
    C193   O4994     0.65688      .   S
    C2715  O4995     0.74086      .   S
    C1775  O4995     0.74086      .   S
    C16    O4996     0.54019      .   S
    C14    O4996     0.54019      .   S
    C2618  O4997     0.70295      .   S
    C2619  O4997     0.70295      .   S
    C2618  O4998     0.54144      .   S
    C2629  O4998     0.54144      .   S
    C640   O4999     0.54010      .   S
    C638   O4999     0.54010      .   S
    C750   O5000     0.54036      .   S
    C747   O5000     0.54036      .   S
    C2595  O5001     0.74074      .   S
    C1388  O5001     0.74074      .   S
    C3674  O5002     0.70255      .   S
    C3675  O5002     0.70255      .   S
    C3674  O5003     0.54152      .   S
    C3685  O5003     0.54152      .   S
    C2619  O5004     0.74286      .   S
    C1772  O5004     0.74286      .   S
    C3675  O5005     0.74223      .   S
    C1754  O5005     0.74223      .   S
    C718   O5006     0.53991      .   S
    C716   O5006     0.53991      .   S
    C3554  O5007     0.70286      .   S
    C3555  O5007     0.70286      .   S
    C3554  O5008     0.54133      .   S
    C3565  O5008     0.54133      .   S
    C822   O5009     0.53990      .   S
    C820   O5009     0.53990      .   S
    C3555  O5010     0.74227      .   S
    C1373  O5010     0.74227      .   S
    C824   O5011     0.67328      .   S
    C825   O5011     0.67328      .   S
    C824   O5012     0.65945      .   S
    C823   O5012     0.65945      .   S
    C18    O5013     0.67204      .   S
    C19    O5013     0.67204      .   S
    C18    O5014     0.65862      .   S
    C17    O5014     0.65862      .   S
    C3650  O5015     0.70265      .   S
    C3651  O5015     0.70265      .   S
    C3650  O5016     0.54148      .   S
    C3661  O5016     0.54148      .   S
    C720   O5017     0.67396      .   S
    C721   O5017     0.67396      .   S
    C720   O5018     0.65943      .   S
    C719   O5018     0.65943      .   S
    C3651  O5019     0.74119      .   S
    C1370  O5019     0.74119      .   S
    C88    O5020     0.67196      .   S
    C92    O5020     0.67196      .   S
    C88    O5021     0.65602      .   S
    C89    O5021     0.65602      .   S
    C196   O5022     0.69367      .   S
    C195   O5022     0.69367      .   S
    C738   O5023     0.67178      .   S
    C742   O5023     0.67178      .   S
    C738   O5024     0.65581      .   S
    C739   O5024     0.65581      .   S
    C96    O5025     0.67526      .   S
    C97    O5025     0.67526      .   S
    C96    O5026     0.66026      .   S
    C95    O5026     0.66026      .   S
    C114   O5027     0.67234      .   S
    C118   O5027     0.67234      .   S
    C114   O5028     0.65734      .   S
    C115   O5028     0.65734      .   S
    C122   O5029     0.67098      .   S
    C123   O5029     0.67098      .   S
    C122   O5030     0.65961      .   S
    C121   O5030     0.65961      .   S
    C25    O5031     1.02931      .   S
    C9     O5031     1.02931      .   S
    C825   O5032     0.69315      .   S
    C826   O5032     0.69315      .   S
    C10    O5033     0.67488      .   S
    C14    O5033     0.67488      .   S
    C10    O5034     0.65697      .   S
    C11    O5034     0.65697      .   S
    C642   O5035     0.67438      .   S
    C643   O5035     0.67438      .   S
    C642   O5036     0.65859      .   S
    C641   O5036     0.65859      .   S
    C19    O5037     0.69178      .   S
    C20    O5037     0.69178      .   S
    C721   O5038     0.69367      .   S
    C722   O5038     0.69367      .   S
    C634   O5039     0.67553      .   S
    C638   O5039     0.67553      .   S
    C634   O5040     0.65654      .   S
    C635   O5040     0.65654      .   S
    C92    O5041     0.69230      .   S
    C91    O5041     0.69230      .   S
    C746   O5042     0.67428      .   S
    C747   O5042     0.67428      .   S
    C746   O5043     0.66009      .   S
    C745   O5043     0.66009      .   S
    C129   O5044     1.02709      .   S
    C113   O5044     1.02709      .   S
    C712   O5045     0.67380      .   S
    C716   O5045     0.67380      .   S
    C712   O5046     0.65673      .   S
    C713   O5046     0.65673      .   S
    C2910  O5047     0.54056      .   S
    C2896  O5047     0.54056      .   S
    C742   O5048     0.69442      .   S
    C741   O5048     0.69442      .   S
    C816   O5049     0.67338      .   S
    C820   O5049     0.67338      .   S
    C816   O5050     0.65622      .   S
    C817   O5050     0.65622      .   S
    C207   O5051     0.99897      .   S
    C191   O5051     0.99897      .   S
    C118   O5052     0.69281      .   S
    C117   O5052     0.69281      .   S
    C204   O5053     0.54027      .   S
    C201   O5053     0.54027      .   S
    C3102  O5054     0.54069      .   S
    C3088  O5054     0.54069      .   S
    C4638  O5055     0.54044      .   S
    C4624  O5055     0.54044      .   S
    C123   O5056     0.69087      .   S
    C124   O5056     0.69087      .   S
    C97    O5057     0.69482      .   S
    C98    O5057     0.69482      .   S
    C200   O5058     0.67138      .   S
    C201   O5058     0.67138      .   S
    C200   O5059     0.65918      .   S
    C199   O5059     0.65918      .   S
    C643   O5060     0.69289      .   S
    C644   O5060     0.69289      .   S
    C14    O5061     0.69705      .   S
    C13    O5061     0.69705      .   S
    C747   O5062     0.69409      .   S
    C748   O5062     0.69409      .   S
    C3966  O5063     0.53987      .   S
    C3952  O5063     0.53987      .   S
    C638   O5064     0.69787      .   S
    C637   O5064     0.69787      .   S
    C716   O5065     0.69444      .   S
    C715   O5065     0.69444      .   S
    C3294  O5066     0.54042      .   S
    C3280  O5066     0.54042      .   S
    C820   O5067     0.69571      .   S
    C819   O5067     0.69571      .   S
    C4350  O5068     0.54063      .   S
    C4336  O5068     0.54063      .   S
    C3078  O5069     0.54017      .   S
    C3064  O5069     0.54017      .   S
    C201   O5070     0.69250      .   S
    C202   O5070     0.69250      .   S
    C193   O5071     0.97852      .   S
    C191   O5071     0.97852      .   S
    C193   O5072     0.67355      .   S
    C194   O5072     0.67355      .   S
    C191   O5073     0.98783      .   S
    C199   O5073     0.98783      .   S
    C2889  O5074     0.54033      .   S
    C2876  O5074     0.54033      .   S
    C4161  O5075     0.54056      .   S
    C4148  O5075     0.54056      .   S
    C3390  O5076     0.54026      .   S
    C3376  O5076     0.54026      .   S
    C3945  O5077     0.54007      .   S
    C3932  O5077     0.54007      .   S
    C823   O5078     0.98530      .   S
    C815   O5078     0.98530      .   S
    C823   O5079     0.67281      .   S
    C827   O5079     0.67281      .   S
    C4137  O5080     0.54072      .   S
    C4124  O5080     0.54072      .   S
    C89    O5081     0.97340      .   S
    C87    O5081     0.97340      .   S
    C89    O5082     0.67384      .   S
    C90    O5082     0.67384      .   S
    C3273  O5083     0.54064      .   S
    C3260  O5083     0.54064      .   S
    C4617  O5084     0.54054      .   S
    C4604  O5084     0.54054      .   S
    C199   O5085     0.67433      .   S
    C203   O5085     0.67433      .   S
    C719   O5086     0.98502      .   S
    C711   O5086     0.98502      .   S
    C719   O5087     0.67296      .   S
    C723   O5087     0.67296      .   S
    C17    O5088     0.98405      .   S
    C9     O5088     0.98405      .   S
    C17    O5089     0.67378      .   S
    C21    O5089     0.67378      .   S
    C95    O5090     0.98404      .   S
    C87    O5090     0.98404      .   S
    C95    O5091     0.67185      .   S
    C99    O5091     0.67185      .   S
    C1391  O5092     0.70185      .   S
    C1262  O5092     0.70185      .   S
    C1391  O5093     0.70357      .   S
    C1298  O5093     0.70357      .   S
    C1757  O5094     0.70186      .   S
    C1610  O5094     0.70186      .   S
    C1757  O5095     0.70303      .   S
    C1712  O5095     0.70303      .   S
    C1772  O5096     0.70345      .   S
    C1676  O5096     0.70345      .   S
    C1772  O5097     0.70196      .   S
    C1640  O5097     0.70196      .   S
    C115   O5098     0.97853      .   S
    C113   O5098     0.97853      .   S
    C115   O5099     0.67356      .   S
    C116   O5099     0.67356      .   S
    C739   O5100     0.97705      .   S
    C737   O5100     0.97705      .   S
    C739   O5101     0.67337      .   S
    C740   O5101     0.67337      .   S
    C1775  O5102     0.70130      .   S
    C1682  O5102     0.70130      .   S
    C1775  O5103     0.70221      .   S
    C1646  O5103     0.70221      .   S
    C11    O5104     0.97093      .   S
    C9     O5104     0.97093      .   S
    C11    O5105     0.67135      .   S
    C12    O5105     0.67135      .   S
    C1754  O5106     0.70273      .   S
    C1718  O5106     0.70273      .   S
    C1754  O5107     0.70238      .   S
    C1604  O5107     0.70238      .   S
    C641   O5108     0.97918      .   S
    C633   O5108     0.97918      .   S
    C641   O5109     0.67212      .   S
    C645   O5109     0.67212      .   S
    C1388  O5110     0.70171      .   S
    C1256  O5110     0.70171      .   S
    C1388  O5111     0.70166      .   S
    C1292  O5111     0.70166      .   S
    C121   O5112     0.99060      .   S
    C113   O5112     0.99060      .   S
    C121   O5113     0.67487      .   S
    C125   O5113     0.67487      .   S
    C815   O5114     0.97365      .   S
    C817   O5114     0.97365      .   S
    C4329  O5115     0.54100      .   S
    C4316  O5115     0.54100      .   S
    C745   O5116     0.98706      .   S
    C737   O5116     0.98706      .   S
    C745   O5117     0.67285      .   S
    C749   O5117     0.67285      .   S
    C817   O5118     0.67238      .   S
    C818   O5118     0.67238      .   S
    C635   O5119     0.96677      .   S
    C633   O5119     0.96677      .   S
    C635   O5120     0.67032      .   S
    C636   O5120     0.67032      .   S
    C711   O5121     0.97246      .   S
    C713   O5121     0.97246      .   S
    C713   O5122     0.67290      .   S
    C714   O5122     0.67290      .   S
    C1263  O5123     0.54197      .   S
    C1262  O5123     0.54197      .   S
    C1373  O5124     0.70278      .   S
    C1328  O5124     0.70278      .   S
    C1373  O5125     0.70110      .   S
    C1226  O5125     0.70110      .   S
    C1611  O5126     0.54182      .   S
    C1610  O5126     0.54182      .   S
    C2911  O5127     0.54199      .   S
    C2897  O5127     0.54199      .   S
    C195   O5128     0.69553      .   S
    C194   O5128     0.69553      .   S
    C195   O5129     0.74459      .   S
    C3093  O5129     0.74459      .   S
    C2896  O5130     0.69743      .   S
    C2897  O5130     0.69743      .   S
    C2896  O5131     0.70313      .   S
    C2901  O5131     0.70313      .   S
    C1299  O5132     0.54159      .   S
    C1298  O5132     0.54159      .   S
    C1370  O5133     0.70257      .   S
    C1334  O5133     0.70257      .   S
    C1370  O5134     0.70060      .   S
    C1220  O5134     0.70060      .   S
    C1677  O5135     0.54160      .   S
    C1676  O5135     0.54160      .   S
    C1713  O5136     0.54142      .   S
    C1712  O5136     0.54142      .   S
    C1641  O5137     0.54173      .   S
    C1640  O5137     0.54173      .   S
    C3366  O5138     0.53983      .   S
    C3352  O5138     0.53983      .   S
    C1719  O5139     0.54160      .   S
    C1718  O5139     0.54160      .   S
    C1257  O5140     0.54170      .   S
    C1256  O5140     0.54170      .   S
    C1683  O5141     0.54139      .   S
    C1682  O5141     0.54139      .   S
    C3088  O5142     0.70355      .   S
    C3093  O5142     0.70355      .   S
    C3088  O5143     0.69839      .   S
    C3089  O5143     0.69839      .   S
    C1647  O5144     0.54178      .   S
    C1646  O5144     0.54178      .   S
    C4624  O5145     0.69954      .   S
    C4625  O5145     0.69954      .   S
    C4624  O5146     0.70371      .   S
    C4629  O5146     0.70371      .   S
    C1329  O5147     0.54173      .   S
    C1328  O5147     0.54173      .   S
    C1605  O5148     0.54147      .   S
    C1604  O5148     0.54147      .   S
    C826   O5149     0.69330      .   S
    C827   O5149     0.69330      .   S
    C826   O5150     0.74413      .   S
    C4629  O5150     0.74413      .   S
    C1293  O5151     0.54183      .   S
    C1292  O5151     0.54183      .   S
    C91    O5152     0.69359      .   S
    C90    O5152     0.69359      .   S
    C91    O5153     0.74278      .   S
    C2901  O5153     0.74278      .   S
    C4639  O5154     0.54184      .   S
    C4625  O5154     0.54184      .   S
    C722   O5155     0.69321      .   S
    C723   O5155     0.69321      .   S
    C722   O5156     0.74451      .   S
    C4341  O5156     0.74451      .   S
    C1335  O5157     0.54166      .   S
    C1334  O5157     0.54166      .   S
    C3103  O5158     0.54192      .   S
    C3089  O5158     0.54192      .   S
    C1221  O5159     0.54145      .   S
    C1220  O5159     0.54145      .   S
    C20    O5160     0.69354      .   S
    C21    O5160     0.69354      .   S
    C20    O5161     0.74242      .   S
    C3285  O5161     0.74242      .   S
    C1227  O5162     0.54164      .   S
    C1226  O5162     0.54164      .   S
    C3952  O5163     0.69807      .   S
    C3953  O5163     0.69807      .   S
    C3952  O5164     0.70547      .   S
    C3957  O5164     0.70547      .   S
    C4336  O5165     0.70340      .   S
    C4341  O5165     0.70340      .   S
    C4336  O5166     0.69951      .   S
    C4337  O5166     0.69951      .   S
    C3280  O5167     0.70351      .   S
    C3285  O5167     0.70351      .   S
    C3280  O5168     0.69730      .   S
    C3281  O5168     0.69730      .   S
    C3967  O5169     0.54181      .   S
    C3953  O5169     0.54181      .   S
    C117   O5170     0.69439      .   S
    C116   O5170     0.69439      .   S
    C117   O5171     0.74376      .   S
    C3069  O5171     0.74376      .   S
    C741   O5172     0.69638      .   S
    C740   O5172     0.69638      .   S
    C741   O5173     0.70645      .   S
    C3957  O5173     0.70645      .   S
    C3064  O5174     0.70391      .   S
    C3069  O5174     0.70391      .   S
    C3064  O5175     0.69802      .   S
    C3065  O5175     0.69802      .   S
    C98    O5176     0.69206      .   S
    C99    O5176     0.69206      .   S
    C98    O5177     0.74472      .   S
    C3261  O5177     0.74472      .   S
    C644   O5178     0.69100      .   S
    C645   O5178     0.69100      .   S
    C644   O5179     0.74115      .   S
    C4317  O5179     0.74115      .   S
    C3295  O5180     0.54159      .   S
    C3281  O5180     0.54159      .   S
    C124   O5181     0.69456      .   S
    C125   O5181     0.69456      .   S
    C124   O5182     0.74223      .   S
    C3381  O5182     0.74223      .   S
    C4351  O5183     0.54188      .   S
    C4337  O5183     0.54188      .   S
    C3079  O5184     0.54169      .   S
    C3065  O5184     0.54169      .   S
    C13    O5185     0.69397      .   S
    C12    O5185     0.69397      .   S
    C13    O5186     0.70715      .   S
    C2877  O5186     0.70715      .   S
    C194   O5187     0.54035      .   S
    C197   O5187     0.54035      .   S
    C202   O5188     0.69557      .   S
    C203   O5188     0.69557      .   S
    C202   O5189     0.74431      .   S
    C3357  O5189     0.74431      .   S
    C748   O5190     0.69311      .   S
    C749   O5190     0.69311      .   S
    C748   O5191     0.74443      .   S
    C4605  O5191     0.74443      .   S
    C1262  O5192     0.70162      .   S
    C1261  O5192     0.70162      .   S
    C637   O5193     0.69313      .   S
    C636   O5193     0.69313      .   S
    C637   O5194     0.70685      .   S
    C4149  O5194     0.70685      .   S
    C1610  O5195     0.70189      .   S
    C1609  O5195     0.70189      .   S
    C1298  O5196     0.70409      .   S
    C1297  O5196     0.70409      .   S
    C1676  O5197     0.70462      .   S
    C1675  O5197     0.70462      .   S
    C819   O5198     0.69483      .   S
    C818   O5198     0.69483      .   S
    C819   O5199     0.70653      .   S
    C3933  O5199     0.70653      .   S
    C1640  O5200     0.70133      .   S
    C1639  O5200     0.70133      .   S
    C1718  O5201     0.70307      .   S
    C1717  O5201     0.70307      .   S
    C715   O5202     0.69320      .   S
    C714   O5202     0.69320      .   S
    C715   O5203     0.74478      .   S
    C4125  O5203     0.74478      .   S
    C1712  O5204     0.70265      .   S
    C1711  O5204     0.70265      .   S
    C1682  O5205     0.70155      .   S
    C1681  O5205     0.70155      .   S
    C1604  O5206     0.70198      .   S
    C1603  O5206     0.70198      .   S
    C1646  O5207     0.70275      .   S
    C1645  O5207     0.70275      .   S
    C1256  O5208     0.70250      .   S
    C1255  O5208     0.70250      .   S
    C3376  O5209     0.70329      .   S
    C3381  O5209     0.70329      .   S
    C3376  O5210     0.69679      .   S
    C3377  O5210     0.69679      .   S
    C2897  O5211     0.70058      .   S
    C2898  O5211     0.70058      .   S
    C1328  O5212     0.70411      .   S
    C1327  O5212     0.70411      .   S
    C203   O5213     0.54029      .   S
    C205   O5213     0.54029      .   S
    C827   O5214     0.53972      .   S
    C829   O5214     0.53972      .   S
    C1292  O5215     0.70196      .   S
    C1291  O5215     0.70196      .   S
    C2876  O5216     0.70529      .   S
    C2877  O5216     0.70529      .   S
    C2876  O5217     0.70064      .   S
    C2875  O5217     0.70064      .   S
    C3260  O5218     0.70353      .   S
    C3261  O5218     0.70353      .   S
    C3260  O5219     0.70098      .   S
    C3259  O5219     0.70098      .   S
    C90    O5220     0.54031      .   S
    C93    O5220     0.54031      .   S
    C1334  O5221     0.70408      .   S
    C1333  O5221     0.70408      .   S
    C4148  O5222     0.70513      .   S
    C4149  O5222     0.70513      .   S
    C4148  O5223     0.70114      .   S
    C4147  O5223     0.70114      .   S
    C723   O5224     0.54007      .   S
    C725   O5224     0.54007      .   S
    C4625  O5225     0.70130      .   S
    C4626  O5225     0.70130      .   S
    C1226  O5226     0.70113      .   S
    C1225  O5226     0.70113      .   S
    C1220  O5227     0.70081      .   S
    C1219  O5227     0.70081      .   S
    C3093  O5228     0.70356      .   S
    C3092  O5228     0.70356      .   S
    C4604  O5229     0.70375      .   S
    C4605  O5229     0.70375      .   S
    C4604  O5230     0.70002      .   S
    C4603  O5230     0.70002      .   S
    C3089  O5231     0.70109      .   S
    C3090  O5231     0.70109      .   S
    C3932  O5232     0.70551      .   S
    C3933  O5232     0.70551      .   S
    C3932  O5233     0.69896      .   S
    C3931  O5233     0.69896      .   S
    C21    O5234     0.53995      .   S
    C23    O5234     0.53995      .   S
    C4316  O5235     0.70246      .   S
    C4317  O5235     0.70246      .   S
    C4316  O5236     0.69955      .   S
    C4315  O5236     0.69955      .   S
    C4629  O5237     0.70309      .   S
    C4628  O5237     0.70309      .   S
    C99    O5238     0.53964      .   S
    C101   O5238     0.53964      .   S
    C4124  O5239     0.70337      .   S
    C4125  O5239     0.70337      .   S
    C4124  O5240     0.69971      .   S
    C4123  O5240     0.69971      .   S
    C2901  O5241     0.70296      .   S
    C2900  O5241     0.70296      .   S
    C3352  O5242     0.70381      .   S
    C3357  O5242     0.70381      .   S
    C3352  O5243     0.69759      .   S
    C3353  O5243     0.69759      .   S
    C116   O5244     0.54053      .   S
    C119   O5244     0.54053      .   S
    C4341  O5245     0.70377      .   S
    C4340  O5245     0.70377      .   S
    C3391  O5246     0.54179      .   S
    C3377  O5246     0.54179      .   S
    C645   O5247     0.53984      .   S
    C647   O5247     0.53984      .   S
    C3953  O5248     0.70003      .   S
    C3954  O5248     0.70003      .   S
    C740   O5249     0.54000      .   S
    C743   O5249     0.54000      .   S
    C12    O5250     0.53976      .   S
    C15    O5250     0.53976      .   S
    C4337  O5251     0.70160      .   S
    C4338  O5251     0.70160      .   S
    C125   O5252     0.54033      .   S
    C127   O5252     0.54033      .   S
    C3285  O5253     0.70295      .   S
    C3284  O5253     0.70295      .   S
    C749   O5254     0.53983      .   S
    C751   O5254     0.53983      .   S
    C3281  O5255     0.70060      .   S
    C3282  O5255     0.70060      .   S
    C3957  O5256     0.70512      .   S
    C3956  O5256     0.70512      .   S
    C818   O5257     0.53990      .   S
    C821   O5257     0.53990      .   S
    C3069  O5258     0.70298      .   S
    C3068  O5258     0.70298      .   S
    C3065  O5259     0.70088      .   S
    C3066  O5259     0.70088      .   S
    C636   O5260     0.53965      .   S
    C639   O5260     0.53965      .   S
    C2888  O5261     0.54045      .   S
    C2875  O5261     0.54045      .   S
    C714   O5262     0.53983      .   S
    C717   O5262     0.53983      .   S
    C4616  O5263     0.54067      .   S
    C4603  O5263     0.54067      .   S
    C4160  O5264     0.54079      .   S
    C4147  O5264     0.54079      .   S
    C3944  O5265     0.54066      .   S
    C3931  O5265     0.54066      .   S
    C3272  O5266     0.54024      .   S
    C3259  O5266     0.54024      .   S
    C4136  O5267     0.54052      .   S
    C4123  O5267     0.54052      .   S
    C3261  O5268     0.70338      .   S
    C3256  O5268     0.70338      .   S
    C4317  O5269     0.70291      .   S
    C4312  O5269     0.70291      .   S
    C3381  O5270     0.70267      .   S
    C3380  O5270     0.70267      .   S
    C3367  O5271     0.54188      .   S
    C3353  O5271     0.54188      .   S
    C3357  O5272     0.70313      .   S
    C3356  O5272     0.70313      .   S
    C4328  O5273     0.54032      .   S
    C4315  O5273     0.54032      .   S
    C2877  O5274     0.70595      .   S
    C2872  O5274     0.70595      .   S
    C4605  O5275     0.70334      .   S
    C4600  O5275     0.70334      .   S
    C4149  O5276     0.70576      .   S
    C4144  O5276     0.70576      .   S
    C3933  O5277     0.70519      .   S
    C3928  O5277     0.70519      .   S
    C3377  O5278     0.70039      .   S
    C3378  O5278     0.70039      .   S
    C4125  O5279     0.70371      .   S
    C4120  O5279     0.70371      .   S
    C3259  O5280     0.70496      .   S
    C3258  O5280     0.70496      .   S
    C2875  O5281     0.70396      .   S
    C2874  O5281     0.70396      .   S
    C4603  O5282     0.70425      .   S
    C4602  O5282     0.70425      .   S
    C3353  O5283     0.70059      .   S
    C3354  O5283     0.70059      .   S
    C4147  O5284     0.70398      .   S
    C4146  O5284     0.70398      .   S
    C4315  O5285     0.70449      .   S
    C4314  O5285     0.70449      .   S
    C3931  O5286     0.70291      .   S
    C3930  O5286     0.70291      .   S
    C4123  O5287     0.70375      .   S
    C4122  O5287     0.70375      .   S
    C2892  O5288     0.54186      .   S
    C2881  O5288     0.54186      .   S
    C2891  O5289     0.54085      .   S
    C2879  O5289     0.54085      .   S
    C2914  O5290     0.54043      .   S
    C2902  O5290     0.54043      .   S
    C4163  O5291     0.54088      .   S
    C4151  O5291     0.54088      .   S
    C4164  O5292     0.54186      .   S
    C4153  O5292     0.54186      .   S
    C1675  O5293     0.70315      .   S
    C1770  O5293     0.70315      .   S
    C1675  O5294     0.74218      .   S
    C1674  O5294     0.74218      .   S
    C1261  O5295     0.70251      .   S
    C1389  O5295     0.70251      .   S
    C1261  O5296     0.74031      .   S
    C1260  O5296     0.74031      .   S
    C1639  O5297     0.70253      .   S
    C1770  O5297     0.70253      .   S
    C1639  O5298     0.74092      .   S
    C1638  O5298     0.74092      .   S
    C1717  O5299     0.70373      .   S
    C1752  O5299     0.70373      .   S
    C1717  O5300     0.74139      .   S
    C1716  O5300     0.74139      .   S
    C4140  O5301     0.54172      .   S
    C4129  O5301     0.54172      .   S
    C1609  O5302     0.70221      .   S
    C1755  O5302     0.70221      .   S
    C1609  O5303     0.74022      .   S
    C1608  O5303     0.74022      .   S
    C1297  O5304     0.70286      .   S
    C1389  O5304     0.70286      .   S
    C1297  O5305     0.74213      .   S
    C1296  O5305     0.74213      .   S
    C4139  O5306     0.54104      .   S
    C4127  O5306     0.54104      .   S
    C1603  O5307     0.70233      .   S
    C1752  O5307     0.70233      .   S
    C1603  O5308     0.74100      .   S
    C1602  O5308     0.74100      .   S
    C1711  O5309     0.70261      .   S
    C1755  O5309     0.70261      .   S
    C1711  O5310     0.74094      .   S
    C1710  O5310     0.74094      .   S
    C1327  O5311     0.70308      .   S
    C1371  O5311     0.70308      .   S
    C1327  O5312     0.74159      .   S
    C1326  O5312     0.74159      .   S
    C1681  O5313     0.70221      .   S
    C1773  O5313     0.70221      .   S
    C1681  O5314     0.73995      .   S
    C1680  O5314     0.73995      .   S
    C1645  O5315     0.70295      .   S
    C1773  O5315     0.70295      .   S
    C1645  O5316     0.74075      .   S
    C1644  O5316     0.74075      .   S
    C2898  O5317     0.74113      .   S
    C2902  O5317     0.74113      .   S
    C2898  O5318     0.70410      .   S
    C2899  O5318     0.70410      .   S
    C1255  O5319     0.70303      .   S
    C1386  O5319     0.70303      .   S
    C1255  O5320     0.74086      .   S
    C1254  O5320     0.74086      .   S
    C4626  O5321     0.74244      .   S
    C4630  O5321     0.74244      .   S
    C4626  O5322     0.70329      .   S
    C4627  O5322     0.70329      .   S
    C1333  O5323     0.70488      .   S
    C1368  O5323     0.70488      .   S
    C1333  O5324     0.74228      .   S
    C1332  O5324     0.74228      .   S
    C1219  O5325     0.70288      .   S
    C1368  O5325     0.70288      .   S
    C1219  O5326     0.74100      .   S
    C1218  O5326     0.74100      .   S
    C1225  O5327     0.70169      .   S
    C1371  O5327     0.70169      .   S
    C1225  O5328     0.73942      .   S
    C1224  O5328     0.73942      .   S
    C3090  O5329     0.74337      .   S
    C3094  O5329     0.74337      .   S
    C3090  O5330     0.70428      .   S
    C3091  O5330     0.70428      .   S
    C3092  O5331     0.54071      .   S
    C3105  O5331     0.54071      .   S
    C3092  O5332     0.69999      .   S
    C3091  O5332     0.69999      .   S
    C1291  O5333     0.70271      .   S
    C1386  O5333     0.70271      .   S
    C1291  O5334     0.74067      .   S
    C1290  O5334     0.74067      .   S
    C4628  O5335     0.54040      .   S
    C4641  O5335     0.54040      .   S
    C4628  O5336     0.69853      .   S
    C4627  O5336     0.69853      .   S
    C4340  O5337     0.54036      .   S
    C4353  O5337     0.54036      .   S
    C4340  O5338     0.69883      .   S
    C4339  O5338     0.69883      .   S
    C1715  O5339     0.63557      .   S
    C1716  O5339     0.63557      .   S
    C1715  O5340     0.92928      .   S
    C1749  O5340     0.92928      .   S
    C1637  O5341     0.63517      .   S
    C1638  O5341     0.63517      .   S
    C1637  O5342     0.92751      .   S
    C1749  O5342     0.92751  1_565   S
    C1259  O5343     0.63573      .   S
    C1260  O5343     0.63573      .   S
    C1259  O5344     0.92762      .   S
    C1367  O5344     0.92762      .   S
    C1673  O5345     0.63526      .   S
    C1674  O5345     0.63526      .   S
    C1673  O5346     0.92882      .   S
    C1747  O5346     0.92882      .   S
    C4338  O5347     0.70395      .   S
    C4339  O5347     0.70395      .   S
    C4338  O5348     0.74390      .   S
    C4342  O5348     0.74390      .   S
    C3356  O5349     0.54040      .   S
    C3369  O5349     0.54040      .   S
    C3356  O5350     0.70084      .   S
    C3355  O5350     0.70084      .   S
    C1607  O5351     0.63588      .   S
    C1608  O5351     0.63588      .   S
    C1607  O5352     0.92847      .   S
    C1747  O5352     0.92847      .   S
    C1325  O5353     0.63464      .   S
    C1326  O5353     0.63464      .   S
    C1325  O5354     0.92596      .   S
    C1367  O5354     0.92596      .   S
    C4312  O5355     0.54065      .   S
    C4326  O5355     0.54065      .   S
    C4312  O5356     0.69705      .   S
    C4313  O5356     0.69705      .   S
    C2900  O5357     0.69932      .   S
    C2899  O5357     0.69932      .   S
    C2900  O5358     0.54075      .   S
    C2913  O5358     0.54075      .   S
    C1295  O5359     0.63498      .   S
    C1296  O5359     0.63498      .   S
    C1295  O5360     0.92766      .   S
    C1361  O5360     0.92766      .   S
    C1601  O5361     0.63533      .   S
    C1602  O5361     0.63533      .   S
    C1601  O5362     0.92622      .   S
    C1745  O5362     0.92622      .   S
    C3954  O5363     0.74144      .   S
    C3958  O5363     0.74144      .   S
    C3954  O5364     0.70347      .   S
    C3955  O5364     0.70347      .   S
    C3066  O5365     0.74237      .   S
    C3070  O5365     0.74237      .   S
    C3066  O5366     0.70432      .   S
    C3067  O5366     0.70432      .   S
    C1709  O5367     0.63550      .   S
    C1710  O5367     0.63550      .   S
    C1709  O5368     0.92874      .   S
    C1751  O5368     0.92874      .   S
    C1679  O5369     0.63509      .   S
    C1680  O5369     0.63509      .   S
    C1679  O5370     0.92534      .   S
    C1745  O5370     0.92534      .   S
    C1253  O5371     0.63548      .   S
    C1254  O5371     0.63548      .   S
    C1253  O5372     0.92731      .   S
    C1365  O5372     0.92731      .   S
    C3068  O5373     0.54054      .   S
    C3081  O5373     0.54054      .   S
    C3068  O5374     0.69965      .   S
    C3067  O5374     0.69965      .   S
    C1331  O5375     0.63586      .   S
    C1332  O5375     0.63586      .   S
    C1331  O5376     0.93051      .   S
    C1365  O5376     0.93051      .   S
    C1643  O5377     0.63531      .   S
    C1644  O5377     0.63531      .   S
    C1643  O5378     0.92833      .   S
    C1751  O5378     0.92833  1_545   S
    C1217  O5379     0.63596      .   S
    C1218  O5379     0.63596      .   S
    C1217  O5380     0.92740      .   S
    C1361  O5380     0.92740  1_455   S
    C3282  O5381     0.74024      .   S
    C3286  O5381     0.74024      .   S
    C3282  O5382     0.70382      .   S
    C3283  O5382     0.70382      .   S
    C3284  O5383     0.54040      .   S
    C3297  O5383     0.54040      .   S
    C3284  O5384     0.69839      .   S
    C3283  O5384     0.69839      .   S
    C3256  O5385     0.54025      .   S
    C3270  O5385     0.54025      .   S
    C3256  O5386     0.69791      .   S
    C3257  O5386     0.69791      .   S
    C4642  O5387     0.54059      .   S
    C4630  O5387     0.54059      .   S
    C1223  O5388     0.63471      .   S
    C1224  O5388     0.63471      .   S
    C1223  O5389     0.92193      .   S
    C1363  O5389     0.92193  1_655   S
    C3956  O5390     0.54053      .   S
    C3969  O5390     0.54053      .   S
    C3956  O5391     0.69911      .   S
    C3955  O5391     0.69911      .   S
    C1289  O5392     0.63569      .   S
    C1290  O5392     0.63569      .   S
    C1289  O5393     0.92788      .   S
    C1363  O5393     0.92788      .   S
    C3106  O5394     0.54050      .   S
    C3094  O5394     0.54050      .   S
    C3380  O5395     0.54113      .   S
    C3393  O5395     0.54113      .   S
    C3380  O5396     0.70033      .   S
    C3379  O5396     0.70033      .   S
    C3354  O5397     0.70494      .   S
    C3355  O5397     0.70494      .   S
    C3354  O5398     0.74372      .   S
    C3358  O5398     0.74372      .   S
    C3970  O5399     0.54074      .   S
    C3958  O5399     0.54074      .   S
    C4600  O5400     0.54042      .   S
    C4614  O5400     0.54042      .   S
    C4600  O5401     0.69841      .   S
    C4601  O5401     0.69841      .   S
    C2919  O5402     0.54004      .   S
    C2909  O5402     0.54004      .   S
    C3378  O5403     0.70463      .   S
    C3379  O5403     0.70463      .   S
    C3378  O5404     0.74144      .   S
    C3382  O5404     0.74144      .   S
    C4354  O5405     0.54079      .   S
    C4342  O5405     0.54079      .   S
    C3082  O5406     0.54093      .   S
    C3070  O5406     0.54093      .   S
    C1770  O5407     0.54149      .   S
    C1771  O5407     0.54149      .   S
    C2872  O5408     0.53981      .   S
    C2886  O5408     0.53981      .   S
    C2872  O5409     0.69766      .   S
    C2873  O5409     0.69766      .   S
    C4314  O5410     0.70061      .   S
    C4313  O5410     0.70061      .   S
    C4314  O5411     0.74144      .   S
    C4318  O5411     0.74144      .   S
    C1389  O5412     0.54139      .   S
    C1390  O5412     0.54139      .   S
    C1752  O5413     0.54152      .   S
    C1753  O5413     0.54152      .   S
    C3298  O5414     0.54078      .   S
    C3286  O5414     0.54078      .   S
    C3258  O5415     0.70086      .   S
    C3257  O5415     0.70086      .   S
    C3258  O5416     0.74339      .   S
    C3262  O5416     0.74339      .   S
    C1755  O5417     0.54165      .   S
    C1756  O5417     0.54165      .   S
    C3928  O5418     0.54031      .   S
    C3942  O5418     0.54031      .   S
    C3928  O5419     0.69841      .   S
    C3929  O5419     0.69841      .   S
    C2902  O5420     0.67054      .   S
    C2903  O5420     0.67054      .   S
    C4144  O5421     0.53965      .   S
    C4158  O5421     0.53965      .   S
    C4144  O5422     0.69676      .   S
    C4145  O5422     0.69676      .   S
    C1773  O5423     0.54140      .   S
    C1774  O5423     0.54140      .   S
    C1674  O5424     0.63588      .   S
    C1672  O5424     0.63588      .   S
    C1638  O5425     0.63494      .   S
    C1636  O5425     0.63494      .   S
    C1716  O5426     0.63525      .   S
    C1714  O5426     0.63525      .   S
    C4630  O5427     0.67069      .   S
    C4631  O5427     0.67069      .   S
    C1371  O5428     0.54131      .   S
    C1372  O5428     0.54131      .   S
    C1260  O5429     0.63501      .   S
    C1258  O5429     0.63501      .   S
    C4602  O5430     0.70120      .   S
    C4601  O5430     0.70120      .   S
    C4602  O5431     0.74348      .   S
    C4606  O5431     0.74348      .   S
    C1608  O5432     0.63463      .   S
    C1606  O5432     0.63463      .   S
    C1368  O5433     0.54167      .   S
    C1369  O5433     0.54167      .   S
    C3094  O5434     0.67099      .   S
    C3095  O5434     0.67099      .   S
    C1296  O5435     0.63622      .   S
    C1294  O5435     0.63622      .   S
    C3091  O5436     0.54050      .   S
    C3104  O5436     0.54050      .   S
    C1326  O5437     0.63588      .   S
    C1324  O5437     0.63588      .   S
    C4120  O5438     0.54018      .   S
    C4134  O5438     0.54018      .   S
    C4120  O5439     0.69909      .   S
    C4121  O5439     0.69909      .   S
    C1386  O5440     0.54170      .   S
    C1387  O5440     0.54170      .   S
    C1602  O5441     0.63545      .   S
    C1600  O5441     0.63545      .   S
    C4627  O5442     0.54076      .   S
    C4640  O5442     0.54076      .   S
    C2874  O5443     0.69992      .   S
    C2873  O5443     0.69992      .   S
    C2874  O5444     0.74272      .   S
    C2878  O5444     0.74272      .   S
    C1710  O5445     0.63508      .   S
    C1708  O5445     0.63508      .   S
    C4339  O5446     0.54035      .   S
    C4352  O5446     0.54035      .   S
    C1680  O5447     0.63506      .   S
    C1678  O5447     0.63506      .   S
    C1644  O5448     0.63517      .   S
    C1642  O5448     0.63517      .   S
    C2899  O5449     0.54050      .   S
    C2912  O5449     0.54050      .   S
    C3355  O5450     0.54022      .   S
    C3368  O5450     0.54022      .   S
    C1254  O5451     0.63512      .   S
    C1252  O5451     0.63512      .   S
    C1332  O5452     0.63533      .   S
    C1330  O5452     0.63533      .   S
    C3930  O5453     0.70067      .   S
    C3929  O5453     0.70067      .   S
    C3930  O5454     0.74173      .   S
    C3934  O5454     0.74173      .   S
    C4342  O5455     0.67184      .   S
    C4343  O5455     0.67184      .   S
    C4146  O5456     0.69931      .   S
    C4145  O5456     0.69931      .   S
    C4146  O5457     0.74202      .   S
    C4150  O5457     0.74202      .   S
    C1218  O5458     0.63489      .   S
    C1216  O5458     0.63489      .   S
    C4619  O5459     0.54060      .   S
    C4607  O5459     0.54060      .   S
    C3958  O5460     0.67016      .   S
    C3959  O5460     0.67016      .   S
    C3070  O5461     0.67060      .   S
    C3071  O5461     0.67060      .   S
    C3067  O5462     0.54058      .   S
    C3080  O5462     0.54058      .   S
    C1224  O5463     0.63563      .   S
    C1222  O5463     0.63563      .   S
    C3394  O5464     0.54075      .   S
    C3382  O5464     0.54075      .   S
    C4313  O5465     0.54182      .   S
    C4327  O5465     0.54182      .   S
    C1290  O5466     0.63461      .   S
    C1288  O5466     0.63461      .   S
    C3275  O5467     0.54063      .   S
    C3263  O5467     0.54063      .   S
    C4122  O5468     0.70136      .   S
    C4121  O5468     0.70136      .   S
    C4122  O5469     0.74309      .   S
    C4126  O5469     0.74309      .   S
    C3286  O5470     0.67003      .   S
    C3287  O5470     0.67003      .   S
    C3283  O5471     0.54091      .   S
    C3296  O5471     0.54091      .   S
    C3370  O5472     0.53968      .   S
    C3358  O5472     0.53968      .   S
    C3947  O5473     0.54096      .   S
    C3935  O5473     0.54096      .   S
    C3955  O5474     0.54083      .   S
    C3968  O5474     0.54083      .   S
    C1749  O5475     0.92906  1_565   S
    C1691  O5475     0.92906      .   S
    C1749  O5476     0.92808      .   S
    C1613  O5476     0.92808      .   S
    C2879  O5477     0.67057      .   S
    C2878  O5477     0.67057      .   S
    C2879  O5478     0.74294      .   S
    C2880  O5478     0.74294      .   S
    C3257  O5479     0.54192      .   S
    C3271  O5479     0.54192      .   S
    C1367  O5480     0.92555      .   S
    C1301  O5480     0.92555      .   S
    C1367  O5481     0.92793      .   S
    C1235  O5481     0.92793      .   S
    C2881  O5482     0.69812      .   S
    C2882  O5482     0.69812      .   S
    C2881  O5483     0.70123      .   S
    C2880  O5483     0.70123      .   S
    C1747  O5484     0.92841      .   S
    C1721  O5484     0.92841      .   S
    C1747  O5485     0.92861      .   S
    C1655  O5485     0.92861      .   S
    C3379  O5486     0.54054      .   S
    C3392  O5486     0.54054      .   S
    C3358  O5487     0.67127      .   S
    C3359  O5487     0.67127      .   S
    C4151  O5488     0.67006      .   S
    C4150  O5488     0.67006      .   S
    C4151  O5489     0.74252      .   S
    C4152  O5489     0.74252      .   S
    C1745  O5490     0.92669      .   S
    C1649  O5490     0.92669      .   S
    C1745  O5491     0.92575      .   S
    C1727  O5491     0.92575      .   S
    C4331  O5492     0.54089      .   S
    C4319  O5492     0.54089      .   S
    C2893  O5493     0.54143      .   S
    C2882  O5493     0.54143      .   S
    C1365  O5494     0.93049      .   S
    C1307  O5494     0.93049      .   S
    C1365  O5495     0.92770      .   S
    C1229  O5495     0.92770      .   S
    C1361  O5496     0.92846      .   S
    C1265  O5496     0.92846      .   S
    C1361  O5497     0.92703  1_455   S
    C1343  O5497     0.92703      .   S
    C4153  O5498     0.69790      .   S
    C4154  O5498     0.69790      .   S
    C4153  O5499     0.70102      .   S
    C4152  O5499     0.70102      .   S
    C1751  O5500     0.92854      .   S
    C1619  O5500     0.92854      .   S
    C1751  O5501     0.92920  1_545   S
    C1685  O5501     0.92920      .   S
    C4129  O5502     0.69795      .   S
    C4130  O5502     0.69795      .   S
    C4129  O5503     0.70181      .   S
    C4128  O5503     0.70181      .   S
    C4127  O5504     0.67110      .   S
    C4126  O5504     0.67110      .   S
    C4127  O5505     0.74346      .   S
    C4128  O5505     0.74346      .   S
    C3382  O5506     0.66982      .   S
    C3383  O5506     0.66982      .   S
    C4601  O5507     0.54177      .   S
    C4615  O5507     0.54177      .   S
    C4165  O5508     0.54157      .   S
    C4154  O5508     0.54157      .   S
    C4141  O5509     0.54155      .   S
    C4130  O5509     0.54155      .   S
    C1363  O5510     0.92260      .   S
    C1271  O5510     0.92260      .   S
    C1363  O5511     0.92819  1_655   S
    C1337  O5511     0.92819      .   S
    C2873  O5512     0.54208      .   S
    C2887  O5512     0.54208      .   S
    C3929  O5513     0.54193      .   S
    C3943  O5513     0.54193      .   S
    C4318  O5514     0.67081      .   S
    C4319  O5514     0.67081      .   S
    C4318  O5515     0.53989      .   S
    C4330  O5515     0.53989      .   S
    C4145  O5516     0.54188      .   S
    C4159  O5516     0.54188      .   S
    C3262  O5517     0.67140      .   S
    C3263  O5517     0.67140      .   S
    C3262  O5518     0.54067      .   S
    C3274  O5518     0.54067      .   S
    C4607  O5519     0.67137      .   S
    C4606  O5519     0.67137      .   S
    C4607  O5520     0.74409      .   S
    C4608  O5520     0.74409      .   S
    C3263  O5521     0.74457      .   S
    C3264  O5521     0.74457      .   S
    C4606  O5522     0.54032      .   S
    C4618  O5522     0.54032      .   S
    C4121  O5523     0.54175      .   S
    C4135  O5523     0.54175      .   S
    C4319  O5524     0.74323      .   S
    C4320  O5524     0.74323      .   S
    C2918  O5525     0.54145      .   S
    C2908  O5525     0.54145      .   S
    C3935  O5526     0.67089      .   S
    C3934  O5526     0.67089      .   S
    C3935  O5527     0.74243      .   S
    C3936  O5527     0.74243      .   S
    C4631  O5528     0.54127      .   S
    C4643  O5528     0.54127      .   S
    C4631  O5529     0.74195      .   S
    C4632  O5529     0.74195      .   S
    C2878  O5530     0.54100      .   S
    C2890  O5530     0.54100      .   S
    C3934  O5531     0.54064      .   S
    C3946  O5531     0.54064      .   S
    C3095  O5532     0.54109      .   S
    C3107  O5532     0.54109      .   S
    C3095  O5533     0.74333      .   S
    C3096  O5533     0.74333      .   S
    C4150  O5534     0.54093      .   S
    C4162  O5534     0.54093      .   S
    C4343  O5535     0.54066      .   S
    C4355  O5535     0.54066      .   S
    C4343  O5536     0.74364      .   S
    C4344  O5536     0.74364      .   S
    C3071  O5537     0.54116      .   S
    C3083  O5537     0.54116      .   S
    C3071  O5538     0.74274      .   S
    C3072  O5538     0.74274      .   S
    C2909  O5539     0.69838      .   S
    C2908  O5539     0.69838      .   S
    C2909  O5540     0.70465      .   S
    C2904  O5540     0.70465      .   S
    C3359  O5541     0.54050      .   S
    C3371  O5541     0.54050      .   S
    C3359  O5542     0.74447      .   S
    C3360  O5542     0.74447      .   S
    C2882  O5543     0.70305      .   S
    C2883  O5543     0.70305      .   S
    C3959  O5544     0.54132      .   S
    C3971  O5544     0.54132      .   S
    C3959  O5545     0.74165      .   S
    C3960  O5545     0.74165      .   S
    C4126  O5546     0.54071      .   S
    C4138  O5546     0.54071      .   S
    C3287  O5547     0.54098      .   S
    C3299  O5547     0.54098      .   S
    C3287  O5548     0.74037      .   S
    C3288  O5548     0.74037      .   S
    C2880  O5549     0.70504      .   S
    C2885  O5549     0.70504      .   S
    C4154  O5550     0.70325      .   S
    C4155  O5550     0.70325      .   S
    C4130  O5551     0.70257      .   S
    C4131  O5551     0.70257      .   S
    C1672  O5552     0.92828      .   S
    C1746  O5552     0.92828      .   S
    C1714  O5553     0.92594      .   S
    C1748  O5553     0.92594      .   S
    C1636  O5554     0.92552      .   S
    C1748  O5554     0.92552  1_565   S
    C1606  O5555     0.92342      .   S
    C1746  O5555     0.92342      .   S
    C1258  O5556     0.92485      .   S
    C1366  O5556     0.92485      .   S
    C4152  O5557     0.70564      .   S
    C4157  O5557     0.70564      .   S
    C1324  O5558     0.92818      .   S
    C1366  O5558     0.92818      .   S
    C3383  O5559     0.54115      .   S
    C3395  O5559     0.54115      .   S
    C3383  O5560     0.74210      .   S
    C3384  O5560     0.74210      .   S
    C1294  O5561     0.92922      .   S
    C1360  O5561     0.92922      .   S
    C1600  O5562     0.92820      .   S
    C1744  O5562     0.92820      .   S
    C4128  O5563     0.70473      .   S
    C4133  O5563     0.70473      .   S
    C1708  O5564     0.92499      .   S
    C1750  O5564     0.92499      .   S
    C3111  O5565     0.54010      .   S
    C3101  O5565     0.54010      .   S
    C1678  O5566     0.92588      .   S
    C1744  O5566     0.92588      .   S
    C1642  O5567     0.92527      .   S
    C1750  O5567     0.92527  1_545   S
    C4647  O5568     0.54039      .   S
    C4637  O5568     0.54039      .   S
    C1330  O5569     0.92736      .   S
    C1364  O5569     0.92736      .   S
    C1252  O5570     0.92607      .   S
    C1364  O5570     0.92607      .   S
    C1216  O5571     0.92599      .   S
    C1360  O5571     0.92599  1_455   S
    C2903  O5572     0.74191      .   S
    C2904  O5572     0.74191      .   S
    C2903  O5573     0.54092      .   S
    C2915  O5573     0.54092      .   S
    C4620  O5574     0.54163      .   S
    C4609  O5574     0.54163      .   S
    C1222  O5575     0.92895      .   S
    C1362  O5575     0.92895  1_655   S
    C1288  O5576     0.92503      .   S
    C1362  O5576     0.92503      .   S
    C3975  O5577     0.54057      .   S
    C3965  O5577     0.54057      .   S
    C3087  O5578     0.54026      .   S
    C3077  O5578     0.54026      .   S
    C4359  O5579     0.54041      .   S
    C4349  O5579     0.54041      .   S
    C1301  O5580     0.63516      .   S
    C1302  O5580     0.63516      .   S
    C1691  O5581     0.63550      .   S
    C1692  O5581     0.63550      .   S
    C1613  O5582     0.63522      .   S
    C1614  O5582     0.63522      .   S
    C3276  O5583     0.54152      .   S
    C3265  O5583     0.54152      .   S
    C4632  O5584     0.70450      .   S
    C4637  O5584     0.70450      .   S
    C4632  O5585     0.70169      .   S
    C4633  O5585     0.70169      .   S
    C4608  O5586     0.70214      .   S
    C4609  O5586     0.70214      .   S
    C4608  O5587     0.70497      .   S
    C4613  O5587     0.70497      .   S
    C3948  O5588     0.54179      .   S
    C3937  O5588     0.54179      .   S
    C3096  O5589     0.70505      .   S
    C3101  O5589     0.70505      .   S
    C3096  O5590     0.70184      .   S
    C3097  O5590     0.70184      .   S
    C1721  O5591     0.63548      .   S
    C1722  O5591     0.63548      .   S
    C3375  O5592     0.53961      .   S
    C3365  O5592     0.53961      .   S
    C1235  O5593     0.63564      .   S
    C1236  O5593     0.63564      .   S
    C1307  O5594     0.63574      .   S
    C1308  O5594     0.63574      .   S
    C4332  O5595     0.54161      .   S
    C4321  O5595     0.54161      .   S
    C3264  O5596     0.70223      .   S
    C3265  O5596     0.70223      .   S
    C3264  O5597     0.70490      .   S
    C3269  O5597     0.70490      .   S
    C1265  O5598     0.63524      .   S
    C1266  O5598     0.63524      .   S
    C1649  O5599     0.63507      .   S
    C1650  O5599     0.63507      .   S
    C1229  O5600     0.63540      .   S
    C1230  O5600     0.63540      .   S
    C1655  O5601     0.63565      .   S
    C1656  O5601     0.63565      .   S
    C1727  O5602     0.63537      .   S
    C1728  O5602     0.63537      .   S
    C1343  O5603     0.63560      .   S
    C1344  O5603     0.63560      .   S
    C3303  O5604     0.54056      .   S
    C3293  O5604     0.54056      .   S
    C2908  O5605     0.70206      .   S
    C2907  O5605     0.70206      .   S
    C3072  O5606     0.70505      .   S
    C3077  O5606     0.70505      .   S
    C3072  O5607     0.70173      .   S
    C3073  O5607     0.70173      .   S
    C1619  O5608     0.63563      .   S
    C1620  O5608     0.63563      .   S
    C4320  O5609     0.70237      .   S
    C4321  O5609     0.70237      .   S
    C4320  O5610     0.70531      .   S
    C4325  O5610     0.70531      .   S
    C3360  O5611     0.70617      .   S
    C3365  O5611     0.70617      .   S
    C3360  O5612     0.70231      .   S
    C3361  O5612     0.70231      .   S
    C1685  O5613     0.63547      .   S
    C1686  O5613     0.63547      .   S
    C4344  O5614     0.70468      .   S
    C4349  O5614     0.70468      .   S
    C4344  O5615     0.70219      .   S
    C4345  O5615     0.70219      .   S
    C3101  O5616     0.70061      .   S
    C3100  O5616     0.70061      .   S
    C3960  O5617     0.70489      .   S
    C3965  O5617     0.70489      .   S
    C3960  O5618     0.70100      .   S
    C3961  O5618     0.70100      .   S
    C4637  O5619     0.70001      .   S
    C4636  O5619     0.70001      .   S
    C3936  O5620     0.70189      .   S
    C3937  O5620     0.70189      .   S
    C3936  O5621     0.70431      .   S
    C3941  O5621     0.70431      .   S
    C1271  O5622     0.63451      .   S
    C1272  O5622     0.63451      .   S
    C1337  O5623     0.63578      .   S
    C1338  O5623     0.63578      .   S
    C3288  O5624     0.70453      .   S
    C3293  O5624     0.70453      .   S
    C3288  O5625     0.70125      .   S
    C3289  O5625     0.70125      .   S
    C3399  O5626     0.54020      .   S
    C3389  O5626     0.54020      .   S
    C4609  O5627     0.69908      .   S
    C4610  O5627     0.69908      .   S
    C3077  O5628     0.70003      .   S
    C3076  O5628     0.70003      .   S
    C3965  O5629     0.69967      .   S
    C3964  O5629     0.69967      .   S
    C1305  O5630     0.54168      .   S
    C1304  O5630     0.54168      .   S
    C4623  O5631     0.53997      .   S
    C4613  O5631     0.53997      .   S
    C3279  O5632     0.54042      .   S
    C3269  O5632     0.54042      .   S
    C4349  O5633     0.70020      .   S
    C4348  O5633     0.70020      .   S
    C1695  O5634     0.54164      .   S
    C1694  O5634     0.54164      .   S
    C3384  O5635     0.70576      .   S
    C3389  O5635     0.70576      .   S
    C3384  O5636     0.70142      .   S
    C3385  O5636     0.70142      .   S
    C3365  O5637     0.69999      .   S
    C3364  O5637     0.69999      .   S
    C4335  O5638     0.53960      .   S
    C4325  O5638     0.53960      .   S
    C3265  O5639     0.69892      .   S
    C3266  O5639     0.69892      .   S
    C1617  O5640     0.54193      .   S
    C1616  O5640     0.54193      .   S
    C3937  O5641     0.69856      .   S
    C3938  O5641     0.69856      .   S
    C3293  O5642     0.69927      .   S
    C3292  O5642     0.69927      .   S
    C4321  O5643     0.69838      .   S
    C4322  O5643     0.69838      .   S
    C3372  O5644     0.54180      .   S
    C3361  O5644     0.54180      .   S
    C1731  O5645     0.54174      .   S
    C1730  O5645     0.54174      .   S
    C1725  O5646     0.54170      .   S
    C1724  O5646     0.54170      .   S
    C1311  O5647     0.54188      .   S
    C1310  O5647     0.54188      .   S
    C1347  O5648     0.54175      .   S
    C1346  O5648     0.54175      .   S
    C1269  O5649     0.54171      .   S
    C1268  O5649     0.54171      .   S
    C3951  O5650     0.54027      .   S
    C3941  O5650     0.54027      .   S
    C2904  O5651     0.70204      .   S
    C2905  O5651     0.70204      .   S
    C4644  O5652     0.54157      .   S
    C4633  O5652     0.54157      .   S
    C1653  O5653     0.54181      .   S
    C1652  O5653     0.54181      .   S
    C1233  O5654     0.54179      .   S
    C1232  O5654     0.54179      .   S
    C4613  O5655     0.69951      .   S
    C4612  O5655     0.69951      .   S
    C1659  O5656     0.54177      .   S
    C1658  O5656     0.54177      .   S
    C3389  O5657     0.69920      .   S
    C3388  O5657     0.69920      .   S
    C1623  O5658     0.54137      .   S
    C1622  O5658     0.54137      .   S
    C3084  O5659     0.54172      .   S
    C3073  O5659     0.54172      .   S
    C3108  O5660     0.54179      .   S
    C3097  O5660     0.54179      .   S
    C3269  O5661     0.69974      .   S
    C3268  O5661     0.69974      .   S
    C4633  O5662     0.69786      .   S
    C4634  O5662     0.69786      .   S
    C3361  O5663     0.69807      .   S
    C3362  O5663     0.69807      .   S
    C1239  O5664     0.54187      .   S
    C1238  O5664     0.54187      .   S
    C4325  O5665     0.69798      .   S
    C4324  O5665     0.69798      .   S
    C4356  O5666     0.54147      .   S
    C4345  O5666     0.54147      .   S
    C3097  O5667     0.69788      .   S
    C3098  O5667     0.69788      .   S
    C3300  O5668     0.54185      .   S
    C3289  O5668     0.54185      .   S
    C3073  O5669     0.69785      .   S
    C3074  O5669     0.69785      .   S
    C1275  O5670     0.54143      .   S
    C1274  O5670     0.54143      .   S
    C3972  O5671     0.54190      .   S
    C3961  O5671     0.54190      .   S
    C1689  O5672     0.54149      .   S
    C1688  O5672     0.54149      .   S
    C1341  O5673     0.54169      .   S
    C1340  O5673     0.54169      .   S
    C3941  O5674     0.69879      .   S
    C3940  O5674     0.69879      .   S
    C3396  O5675     0.54159      .   S
    C3385  O5675     0.54159      .   S
    C4345  O5676     0.69853      .   S
    C4346  O5676     0.69853      .   S
    C3961  O5677     0.69732      .   S
    C3962  O5677     0.69732      .   S
    C3289  O5678     0.69708      .   S
    C3290  O5678     0.69708      .   S
    C3385  O5679     0.69746      .   S
    C3386  O5679     0.69746      .   S
    C3100  O5680     0.54139      .   S
    C3110  O5680     0.54139      .   S
    C3100  O5681     0.70204      .   S
    C3099  O5681     0.70204      .   S
    C4636  O5682     0.54143      .   S
    C4646  O5682     0.54143      .   S
    C4636  O5683     0.70230      .   S
    C4635  O5683     0.70230      .   S
    C3964  O5684     0.54170      .   S
    C3974  O5684     0.54170      .   S
    C3964  O5685     0.70213      .   S
    C3963  O5685     0.70213      .   S
    C3076  O5686     0.54131      .   S
    C3086  O5686     0.54131      .   S
    C3076  O5687     0.70198      .   S
    C3075  O5687     0.70198      .   S
    C1748  O5688     0.92549  1_565   S
    C1690  O5688     0.92549      .   S
    C1748  O5689     0.92531      .   S
    C1612  O5689     0.92531      .   S
    C1746  O5690     0.92836      .   S
    C1720  O5690     0.92836      .   S
    C1746  O5691     0.92323      .   S
    C1654  O5691     0.92323      .   S
    C1366  O5692     0.92807      .   S
    C1300  O5692     0.92807      .   S
    C1366  O5693     0.92456      .   S
    C1234  O5693     0.92456      .   S
    C3364  O5694     0.54156      .   S
    C3374  O5694     0.54156      .   S
    C3364  O5695     0.70137      .   S
    C3363  O5695     0.70137      .   S
    C4610  O5696     0.54144      .   S
    C4621  O5696     0.54144      .   S
    C4610  O5697     0.70222      .   S
    C4611  O5697     0.70222      .   S
    C4348  O5698     0.54121      .   S
    C4358  O5698     0.54121      .   S
    C4348  O5699     0.70257      .   S
    C4347  O5699     0.70257      .   S
    C1744  O5700     0.92777      .   S
    C1648  O5700     0.92777      .   S
    C1744  O5701     0.92533      .   S
    C1726  O5701     0.92533      .   S
    C1360  O5702     0.92636      .   S
    C1264  O5702     0.92636      .   S
    C1360  O5703     0.92984  1_455   S
    C1342  O5703     0.92984      .   S
    C1750  O5704     0.92557      .   S
    C1618  O5704     0.92557      .   S
    C1750  O5705     0.92448  1_545   S
    C1684  O5705     0.92448      .   S
    C3292  O5706     0.54141      .   S
    C3302  O5706     0.54141      .   S
    C3292  O5707     0.70150      .   S
    C3291  O5707     0.70150      .   S
    C1364  O5708     0.92628      .   S
    C1228  O5708     0.92628      .   S
    C1364  O5709     0.92686      .   S
    C1306  O5709     0.92686      .   S
    C3388  O5710     0.54167      .   S
    C3398  O5710     0.54167      .   S
    C3388  O5711     0.70124      .   S
    C3387  O5711     0.70124      .   S
    C3266  O5712     0.54157      .   S
    C3277  O5712     0.54157      .   S
    C3266  O5713     0.70272      .   S
    C3267  O5713     0.70272      .   S
    C3938  O5714     0.54150      .   S
    C3949  O5714     0.54150      .   S
    C3938  O5715     0.70198      .   S
    C3939  O5715     0.70198      .   S
    C1362  O5716     0.92897      .   S
    C1270  O5716     0.92897      .   S
    C1362  O5717     0.92491  1_655   S
    C1336  O5717     0.92491      .   S
    C4322  O5718     0.54152      .   S
    C4333  O5718     0.54152      .   S
    C4322  O5719     0.70174      .   S
    C4323  O5719     0.70174      .   S
    C2883  O5720     0.74328      .   S
    C1403  O5720     0.74328      .   S
    C2883  O5721     0.70250      .   S
    C2884  O5721     0.70250      .   S
    C3362  O5722     0.70221      .   S
    C3363  O5722     0.70221      .   S
    C3362  O5723     0.54148      .   S
    C3373  O5723     0.54148      .   S
    C1302  O5724     0.63567      .   S
    C1300  O5724     0.63567      .   S
    C1302  O5725     0.74104      .   S
    C1303  O5725     0.74104      .   S
    C4634  O5726     0.70227      .   S
    C4635  O5726     0.70227      .   S
    C4634  O5727     0.54151      .   S
    C4645  O5727     0.54151      .   S
    C1692  O5728     0.63501      .   S
    C1690  O5728     0.63501      .   S
    C1692  O5729     0.74155      .   S
    C1693  O5729     0.74155      .   S
    C4612  O5730     0.70245      .   S
    C4611  O5730     0.70245      .   S
    C4612  O5731     0.54142      .   S
    C4622  O5731     0.54142      .   S
    C2885  O5732     0.54049      .   S
    C2895  O5732     0.54049      .   S
    C2885  O5733     0.70016      .   S
    C2884  O5733     0.70016      .   S
    C1614  O5734     0.63534      .   S
    C1612  O5734     0.63534      .   S
    C1614  O5735     0.74084      .   S
    C1615  O5735     0.74084      .   S
    C3098  O5736     0.70298      .   S
    C3099  O5736     0.70298      .   S
    C3098  O5737     0.54157      .   S
    C3109  O5737     0.54157      .   S
    C4155  O5738     0.74209      .   S
    C1766  O5738     0.74209      .   S
    C4155  O5739     0.70184      .   S
    C4156  O5739     0.70184      .   S
    C3074  O5740     0.70230      .   S
    C3075  O5740     0.70230      .   S
    C3074  O5741     0.54135      .   S
    C3085  O5741     0.54135      .   S
    C4131  O5742     0.74331      .   S
    C1382  O5742     0.74331      .   S
    C4131  O5743     0.70241      .   S
    C4132  O5743     0.70241      .   S
    C1722  O5744     0.63534      .   S
    C1720  O5744     0.63534      .   S
    C1722  O5745     0.74242      .   S
    C1723  O5745     0.74242      .   S
    C1304  O5746     0.70203      .   S
    C1403  O5746     0.70203      .   S
    C1304  O5747     0.70149      .   S
    C1303  O5747     0.70149      .   S
    C3268  O5748     0.70182      .   S
    C3267  O5748     0.70182      .   S
    C3268  O5749     0.54164      .   S
    C3278  O5749     0.54164      .   S
    C1266  O5750     0.63551      .   S
    C1264  O5750     0.63551      .   S
    C1266  O5751     0.74169      .   S
    C1267  O5751     0.74169      .   S
    C1656  O5752     0.63478      .   S
    C1654  O5752     0.63478      .   S
    C1656  O5753     0.74014      .   S
    C1657  O5753     0.74014      .   S
    C1728  O5754     0.63486      .   S
    C1726  O5754     0.63486      .   S
    C1728  O5755     0.74012      .   S
    C1729  O5755     0.74012      .   S
    C3962  O5756     0.70258      .   S
    C3963  O5756     0.70258      .   S
    C3962  O5757     0.54146      .   S
    C3973  O5757     0.54146      .   S
    C1308  O5758     0.63535      .   S
    C1306  O5758     0.63535      .   S
    C1308  O5759     0.74268      .   S
    C1309  O5759     0.74268      .   S
    C1650  O5760     0.63590      .   S
    C1648  O5760     0.63590      .   S
    C1650  O5761     0.74123      .   S
    C1651  O5761     0.74123      .   S
    C4324  O5762     0.70135      .   S
    C4323  O5762     0.70135      .   S
    C4324  O5763     0.54150      .   S
    C4334  O5763     0.54150      .   S
    C1230  O5764     0.63522      .   S
    C1228  O5764     0.63522      .   S
    C1230  O5765     0.74120      .   S
    C1231  O5765     0.74120      .   S
    C1236  O5766     0.63482      .   S
    C1234  O5766     0.63482      .   S
    C1236  O5767     0.74011      .   S
    C1237  O5767     0.74011      .   S
    C1344  O5768     0.63559      .   S
    C1342  O5768     0.63559      .   S
    C1344  O5769     0.74220      .   S
    C1345  O5769     0.74220      .   S
    C4157  O5770     0.54038      .   S
    C4167  O5770     0.54038      .   S
    C4157  O5771     0.69974      .   S
    C4156  O5771     0.69974      .   S
    C3099  O5772     0.74360      .   S
    C1784  O5772     0.74360      .   S
    C1620  O5773     0.63522      .   S
    C1618  O5773     0.63522      .   S
    C1620  O5774     0.74125      .   S
    C1621  O5774     0.74125      .   S
    C3290  O5775     0.70217      .   S
    C3291  O5775     0.70217      .   S
    C3290  O5776     0.54139      .   S
    C3301  O5776     0.54139      .   S
    C3386  O5777     0.70209      .   S
    C3387  O5777     0.70209      .   S
    C3386  O5778     0.54161      .   S
    C3397  O5778     0.54161      .   S
    C4346  O5779     0.70220      .   S
    C4347  O5779     0.70220      .   S
    C4346  O5780     0.54154      .   S
    C4357  O5780     0.54154      .   S
    C4635  O5781     0.74241      .   S
    C1760  O5781     0.74241      .   S
    C3940  O5782     0.70259      .   S
    C3939  O5782     0.70259      .   S
    C3940  O5783     0.54159      .   S
    C3950  O5783     0.54159      .   S
    C4133  O5784     0.54041      .   S
    C4143  O5784     0.54041      .   S
    C4133  O5785     0.70055      .   S
    C4132  O5785     0.70055      .   S
    C1686  O5786     0.63508      .   S
    C1684  O5786     0.63508      .   S
    C1686  O5787     0.74082      .   S
    C1687  O5787     0.74082      .   S
    C1694  O5788     0.70390      .   S
    C1693  O5788     0.70390      .   S
    C1694  O5789     0.70313      .   S
    C1784  O5789     0.70313      .   S
    C3363  O5790     0.74192      .   S
    C1394  O5790     0.74192      .   S
    C3075  O5791     0.74204      .   S
    C1400  O5791     0.74204      .   S
    C1616  O5792     0.70269      .   S
    C1615  O5792     0.70269      .   S
    C1616  O5793     0.70229      .   S
    C1760  O5793     0.70229      .   S
    C1272  O5794     0.63551      .   S
    C1270  O5794     0.63551      .   S
    C1272  O5795     0.74018      .   S
    C1273  O5795     0.74018      .   S
    C1730  O5796     0.70125      .   S
    C1766  O5796     0.70125      .   S
    C1730  O5797     0.70052      .   S
    C1729  O5797     0.70052      .   S
    C1346  O5798     0.70196      .   S
    C1382  O5798     0.70196      .   S
    C1346  O5799     0.70236      .   S
    C1345  O5799     0.70236      .   S
    C3963  O5800     0.74164      .   S
    C1769  O5800     0.74164      .   S
    C1338  O5801     0.63488      .   S
    C1336  O5801     0.63488      .   S
    C1338  O5802     0.74054      .   S
    C1339  O5802     0.74054      .   S
    C1268  O5803     0.70379      .   S
    C1267  O5803     0.70379      .   S
    C1268  O5804     0.70290      .   S
    C1394  O5804     0.70290      .   S
    C4611  O5805     0.74280      .   S
    C1376  O5805     0.74280      .   S
    C1724  O5806     0.70367      .   S
    C1723  O5806     0.70367      .   S
    C1724  O5807     0.70234      .   S
    C1769  O5807     0.70234      .   S
    C1310  O5808     0.70367      .   S
    C1309  O5808     0.70367      .   S
    C1310  O5809     0.70288      .   S
    C1400  O5809     0.70288      .   S
    C1232  O5810     0.70199      .   S
    C1231  O5810     0.70199      .   S
    C1232  O5811     0.70301      .   S
    C1376  O5811     0.70301      .   S
    C4347  O5812     0.74304      .   S
    C1763  O5812     0.74304      .   S
    C3291  O5813     0.74020      .   S
    C1781  O5813     0.74020      .   S
    C1652  O5814     0.70373      .   S
    C1651  O5814     0.70373      .   S
    C1652  O5815     0.70234      .   S
    C1778  O5815     0.70234      .   S
    C3387  O5816     0.74061      .   S
    C1778  O5816     0.74061      .   S
    C1658  O5817     0.70293      .   S
    C1657  O5817     0.70293      .   S
    C1658  O5818     0.70172      .   S
    C1781  O5818     0.70172      .   S
    C1622  O5819     0.70315      .   S
    C1621  O5819     0.70315      .   S
    C1622  O5820     0.70278      .   S
    C1763  O5820     0.70278      .   S
    C3267  O5821     0.74282      .   S
    C1397  O5821     0.74282      .   S
    C1238  O5822     0.70157      .   S
    C1237  O5822     0.70157      .   S
    C1238  O5823     0.70113      .   S
    C1379  O5823     0.70113      .   S
    C4323  O5824     0.73997      .   S
    C1379  O5824     0.73997      .   S
    C3939  O5825     0.74214      .   S
    C1385  O5825     0.74214      .   S
    C1274  O5826     0.70213      .   S
    C1273  O5826     0.70213      .   S
    C1274  O5827     0.70223      .   S
    C1397  O5827     0.70223      .   S
    C1688  O5828     0.70273      .   S
    C1687  O5828     0.70273      .   S
    C1688  O5829     0.70233      .   S
    C1787  O5829     0.70233      .   S
    C1340  O5830     0.70213      .   S
    C1339  O5830     0.70213      .   S
    C1340  O5831     0.70232      .   S
    C1385  O5831     0.70232      .   S
    C2907  O5832     0.74045      .   S
    C1787  O5832     0.74045      .   S
    C2907  O5833     0.70191      .   S
    C2906  O5833     0.70191      .   S
    C1403  O5834     0.70376      .   S
    C1286  O5834     0.70376      .   S
    C1303  O5835     0.70181      .   S
    C1401  O5835     0.70181      .   S
    C2884  O5836     0.54160      .   S
    C2894  O5836     0.54160      .   S
    C1693  O5837     0.70328      .   S
    C1782  O5837     0.70328      .   S
    C1615  O5838     0.70304      .   S
    C1758  O5838     0.70304      .   S
    C2905  O5839     0.69829      .   S
    C2906  O5839     0.69829      .   S
    C2905  O5840     0.54188      .   S
    C2916  O5840     0.54188      .   S
    C1382  O5841     0.70257      .   S
    C1244  O5841     0.70257      .   S
    C1766  O5842     0.70356      .   S
    C1628  O5842     0.70356      .   S
    C1784  O5843     0.70185      .   S
    C1664  O5843     0.70185      .   S
    C1729  O5844     0.70158      .   S
    C1764  O5844     0.70158      .   S
    C1345  O5845     0.70337      .   S
    C1380  O5845     0.70337      .   S
    C1760  O5846     0.70189      .   S
    C1742  O5846     0.70189      .   S
    C1267  O5847     0.70287      .   S
    C1392  O5847     0.70287      .   S
    C4156  O5848     0.54162      .   S
    C4166  O5848     0.54162      .   S
    C1723  O5849     0.70458      .   S
    C1767  O5849     0.70458      .   S
    C1309  O5850     0.70363      .   S
    C1398  O5850     0.70363      .   S
    C1231  O5851     0.70174      .   S
    C1374  O5851     0.70174      .   S
    C1394  O5852     0.70138      .   S
    C1322  O5852     0.70138      .   S
    C1657  O5853     0.70342      .   S
    C1779  O5853     0.70342      .   S
    C4132  O5854     0.54122      .   S
    C4142  O5854     0.54122      .   S
    C1651  O5855     0.70340      .   S
    C1776  O5855     0.70340      .   S
    C1400  O5856     0.70168      .   S
    C1280  O5856     0.70168      .   S
    C1769  O5857     0.70074      .   S
    C1634  O5857     0.70074      .   S
    C1621  O5858     0.70268      .   S
    C1761  O5858     0.70268      .   S
    C1237  O5859     0.70252      .   S
    C1377  O5859     0.70252      .   S
    C1376  O5860     0.70329      .   S
    C1358  O5860     0.70329      .   S
    C1687  O5861     0.70330      .   S
    C1785  O5861     0.70330      .   S
    C1778  O5862     0.70073      .   S
    C1706  O5862     0.70073      .   S
    C1781  O5863     0.70068      .   S
    C1700  O5863     0.70068      .   S
    C1273  O5864     0.70099      .   S
    C1395  O5864     0.70099      .   S
    C1763  O5865     0.70305      .   S
    C1736  O5865     0.70305      .   S
    C1339  O5866     0.70251      .   S
    C1383  O5866     0.70251      .   S
    C1379  O5867     0.70218      .   S
    C1352  O5867     0.70218      .   S
    C1397  O5868     0.70344      .   S
    C1316  O5868     0.70344      .   S
    C1385  O5869     0.70261      .   S
    C1250  O5869     0.70261      .   S
    C1787  O5870     0.70122      .   S
    C1670  O5870     0.70122      .   S
    C2906  O5871     0.54180      .   S
    C2917  O5871     0.54180      .   S
    C1286  O5872     0.54171      .   S
    C1287  O5872     0.54171      .   S
    C1286  O5873     0.70379      .   S
    C1285  O5873     0.70379      .   S
    C1401  O5874     0.54138      .   S
    C1402  O5874     0.54138      .   S
    C1401  O5875     0.70330      .   S
    C1285  O5875     0.70330      .   S
    C1244  O5876     0.54171      .   S
    C1245  O5876     0.54171      .   S
    C1244  O5877     0.70361      .   S
    C1243  O5877     0.70361      .   S
    C1758  O5878     0.54156      .   S
    C1759  O5878     0.54156      .   S
    C1758  O5879     0.70212      .   S
    C1741  O5879     0.70212      .   S
    C1782  O5880     0.54169      .   S
    C1783  O5880     0.54169      .   S
    C1782  O5881     0.70167      .   S
    C1663  O5881     0.70167      .   S
    C1628  O5882     0.54173      .   S
    C1629  O5882     0.54173      .   S
    C1628  O5883     0.70397      .   S
    C1627  O5883     0.70397      .   S
    C1380  O5884     0.54152      .   S
    C1381  O5884     0.54152      .   S
    C1380  O5885     0.70422      .   S
    C1243  O5885     0.70422      .   S
    C1392  O5886     0.54155      .   S
    C1393  O5886     0.54155      .   S
    C1392  O5887     0.70194      .   S
    C1321  O5887     0.70194      .   S
    C1764  O5888     0.54173      .   S
    C1765  O5888     0.54173      .   S
    C1764  O5889     0.70323      .   S
    C1627  O5889     0.70323      .   S
    C1742  O5890     0.54155      .   S
    C1743  O5890     0.54155      .   S
    C1742  O5891     0.70182      .   S
    C1741  O5891     0.70182      .   S
    C1374  O5892     0.54140      .   S
    C1375  O5892     0.54140      .   S
    C1374  O5893     0.70276      .   S
    C1357  O5893     0.70276      .   S
    C1664  O5894     0.54187      .   S
    C1665  O5894     0.54187      .   S
    C1664  O5895     0.70190      .   S
    C1663  O5895     0.70190      .   S
    C1322  O5896     0.54159      .   S
    C1323  O5896     0.54159      .   S
    C1322  O5897     0.70153      .   S
    C1321  O5897     0.70153      .   S
    C1779  O5898     0.54171      .   S
    C1780  O5898     0.54171      .   S
    C1779  O5899     0.70174      .   S
    C1699  O5899     0.70174      .   S
    C1398  O5900     0.54158      .   S
    C1399  O5900     0.54158      .   S
    C1398  O5901     0.70313      .   S
    C1279  O5901     0.70313      .   S
    C1767  O5902     0.54132      .   S
    C1768  O5902     0.54132      .   S
    C1767  O5903     0.70335      .   S
    C1633  O5903     0.70335      .   S
    C1377  O5904     0.54140      .   S
    C1378  O5904     0.54140      .   S
    C1377  O5905     0.70333      .   S
    C1351  O5905     0.70333      .   S
    C1358  O5906     0.54162      .   S
    C1359  O5906     0.54162      .   S
    C1358  O5907     0.70316      .   S
    C1357  O5907     0.70316      .   S
    C1776  O5908     0.54151      .   S
    C1777  O5908     0.54151      .   S
    C1776  O5909     0.70191      .   S
    C1705  O5909     0.70191      .   S
    C1280  O5910     0.54163      .   S
    C1281  O5910     0.54163      .   S
    C1280  O5911     0.70125      .   S
    C1279  O5911     0.70125      .   S
    C1761  O5912     0.54129      .   S
    C1762  O5912     0.54129      .   S
    C1761  O5913     0.70256      .   S
    C1735  O5913     0.70256      .   S
    C1634  O5914     0.54179      .   S
    C1635  O5914     0.54179      .   S
    C1634  O5915     0.70079      .   S
    C1633  O5915     0.70079      .   S
    C1395  O5916     0.54169      .   S
    C1396  O5916     0.54169      .   S
    C1395  O5917     0.70268      .   S
    C1315  O5917     0.70268      .   S
    C1785  O5918     0.54173      .   S
    C1786  O5918     0.54173      .   S
    C1785  O5919     0.70238      .   S
    C1669  O5919     0.70238      .   S
    C1700  O5920     0.54172      .   S
    C1701  O5920     0.54172      .   S
    C1700  O5921     0.70099      .   S
    C1699  O5921     0.70099      .   S
    C1383  O5922     0.54187      .   S
    C1384  O5922     0.54187      .   S
    C1383  O5923     0.70266      .   S
    C1249  O5923     0.70266      .   S
    C1706  O5924     0.54185      .   S
    C1707  O5924     0.54185      .   S
    C1706  O5925     0.70043      .   S
    C1705  O5925     0.70043      .   S
    C1736  O5926     0.54154      .   S
    C1737  O5926     0.54154      .   S
    C1736  O5927     0.70262      .   S
    C1735  O5927     0.70262      .   S
    C1316  O5928     0.54153      .   S
    C1317  O5928     0.54153      .   S
    C1316  O5929     0.70391      .   S
    C1315  O5929     0.70391      .   S
    C1352  O5930     0.54167      .   S
    C1353  O5930     0.54167      .   S
    C1352  O5931     0.70237      .   S
    C1351  O5931     0.70237      .   S
    C1250  O5932     0.54171      .   S
    C1251  O5932     0.54171      .   S
    C1250  O5933     0.70274      .   S
    C1249  O5933     0.70274      .   S
    C1670  O5934     0.54193      .   S
    C1671  O5934     0.54193      .   S
    C1670  O5935     0.70169      .   S
    C1669  O5935     0.70169      .   S
    C1285  O5936     0.74222      .   S
    C1284  O5936     0.74222      .   S
    C1243  O5937     0.74297      .   S
    C1242  O5937     0.74297      .   S
    C1741  O5938     0.74072      .   S
    C1740  O5938     0.74072      .   S
    C1627  O5939     0.74192      .   S
    C1626  O5939     0.74192      .   S
    C1663  O5940     0.74102      .   S
    C1662  O5940     0.74102      .   S
    C1321  O5941     0.74019      .   S
    C1320  O5941     0.74019      .   S
    C1357  O5942     0.74144      .   S
    C1356  O5942     0.74144      .   S
    C1279  O5943     0.74121      .   S
    C1278  O5943     0.74121      .   S
    C1699  O5944     0.73981      .   S
    C1698  O5944     0.73981      .   S
    C1633  O5945     0.74088      .   S
    C1632  O5945     0.74088      .   S
    C1705  O5946     0.73930      .   S
    C1704  O5946     0.73930      .   S
    C1351  O5947     0.74075      .   S
    C1350  O5947     0.74075      .   S
    C1735  O5948     0.74162      .   S
    C1734  O5948     0.74162      .   S
    C1315  O5949     0.74104      .   S
    C1314  O5949     0.74104      .   S
    C1249  O5950     0.74098      .   S
    C1248  O5950     0.74098      .   S
    C1669  O5951     0.74063      .   S
    C1668  O5951     0.74063      .   S
    C1284  O5952     0.63562      .   S
    C1283  O5952     0.63562      .   S
    C1284  O5953     0.63550      .   S
    C1282  O5953     0.63550      .   S
    C1242  O5954     0.63589      .   S
    C1241  O5954     0.63589      .   S
    C1242  O5955     0.63536      .   S
    C1240  O5955     0.63536      .   S
    C1740  O5956     0.63547      .   S
    C1738  O5956     0.63547      .   S
    C1740  O5957     0.63529      .   S
    C1739  O5957     0.63529      .   S
    C1626  O5958     0.63551      .   S
    C1625  O5958     0.63551      .   S
    C1626  O5959     0.63539      .   S
    C1624  O5959     0.63539      .   S
    C1320  O5960     0.63483      .   S
    C1318  O5960     0.63483      .   S
    C1320  O5961     0.63506      .   S
    C1319  O5961     0.63506      .   S
    C1356  O5962     0.63567      .   S
    C1355  O5962     0.63567      .   S
    C1356  O5963     0.63511      .   S
    C1354  O5963     0.63511      .   S
    C1662  O5964     0.63604      .   S
    C1660  O5964     0.63604      .   S
    C1662  O5965     0.63461      .   S
    C1661  O5965     0.63461      .   S
    C1698  O5966     0.63534      .   S
    C1697  O5966     0.63534      .   S
    C1698  O5967     0.63479      .   S
    C1696  O5967     0.63479      .   S
    C1278  O5968     0.63469      .   S
    C1276  O5968     0.63469      .   S
    C1278  O5969     0.63596      .   S
    C1277  O5969     0.63596      .   S
    C1350  O5970     0.63565      .   S
    C1349  O5970     0.63565      .   S
    C1350  O5971     0.63487      .   S
    C1348  O5971     0.63487      .   S
    C1314  O5972     0.63576      .   S
    C1312  O5972     0.63576      .   S
    C1314  O5973     0.63512      .   S
    C1313  O5973     0.63512      .   S
    C1704  O5974     0.63446      .   S
    C1702  O5974     0.63446      .   S
    C1704  O5975     0.63566      .   S
    C1703  O5975     0.63566      .   S
    C1632  O5976     0.63479      .   S
    C1630  O5976     0.63479      .   S
    C1632  O5977     0.63555      .   S
    C1631  O5977     0.63555      .   S
    C1248  O5978     0.63523      .   S
    C1247  O5978     0.63523      .   S
    C1248  O5979     0.63531      .   S
    C1246  O5979     0.63531      .   S
    C1734  O5980     0.63559      .   S
    C1732  O5980     0.63559      .   S
    C1734  O5981     0.63520      .   S
    C1733  O5981     0.63520      .   S
    C1668  O5982     0.63519      .   S
    C1666  O5982     0.63519      .   S
    C1668  O5983     0.63510      .   S
    C1667  O5983     0.63510      .   S
    C1283  O5984     0.92973      .   S
    C1555  O5984     0.92973      .   S
    C1282  O5985     0.92632      .   S
    C1554  O5985     0.92632      .   S
    C1241  O5986     0.93048      .   S
    C1553  O5986     0.93048      .   S
    C1240  O5987     0.92743      .   S
    C1552  O5987     0.92743      .   S
    C1738  O5988     0.92710      .   S
    C1936  O5988     0.92710      .   S
    C1318  O5989     0.92538      .   S
    C1554  O5989     0.92538      .   S
    C1319  O5990     0.92608      .   S
    C1555  O5990     0.92608      .   S
    C1625  O5991     0.92980      .   S
    C1937  O5991     0.92980      .   S
    C1739  O5992     0.92568      .   S
    C1937  O5992     0.92568      .   S
    C1624  O5993     0.92640      .   S
    C1936  O5993     0.92640      .   S
    C1355  O5994     0.92997      .   S
    C1553  O5994     0.92997      .   S
    C1354  O5995     0.92472      .   S
    C1552  O5995     0.92472      .   S
    C1660  O5996     0.93001      .   S
    C1940  O5996     0.93001      .   S
    C1661  O5997     0.92282      .   S
    C1941  O5997     0.92282      .   S
    C1697  O5998     0.92457      .   S
    C1941  O5998     0.92457      .   S
    C1696  O5999     0.92619      .   S
    C1940  O5999     0.92619      .   S
    C1276  O6000     0.92418      .   S
    C1556  O6000     0.92418      .   S
    C1312  O6001     0.92687      .   S
    C1556  O6001     0.92687      .   S
    C1349  O6002     0.92967      .   S
    C1559  O6002     0.92967      .   S
    C1277  O6003     0.92984      .   S
    C1557  O6003     0.92984      .   S
    C1348  O6004     0.92384      .   S
    C1558  O6004     0.92384      .   S
    C1247  O6005     0.92791      .   S
    C1559  O6005     0.92791      .   S
    C1246  O6006     0.92636      .   S
    C1558  O6006     0.92636      .   S
    C1702  O6007     0.92374      .   S
    C1938  O6007     0.92374      .   S
    C1630  O6008     0.92662      .   S
    C1942  O6008     0.92662      .   S
    C1313  O6009     0.92772      .   S
    C1557  O6009     0.92772      .   S
    C1703  O6010     0.92566      .   S
    C1939  O6010     0.92566      .   S
    C1732  O6011     0.92790      .   S
    C1942  O6011     0.92790      .   S
    C1631  O6012     0.92652      .   S
    C1943  O6012     0.92652      .   S
    C1666  O6013     0.92716      .   S
    C1938  O6013     0.92716      .   S
    C1733  O6014     0.92734      .   S
    C1943  O6014     0.92734      .   S
    C1667  O6015     0.92503      .   S
    C1939  O6015     0.92503      .   S
    C1555  O6016     0.92643      .   S
    C1537  O6016     0.92643      .   S
    C1555  O6017     0.92973      .   S
    C1429  O6017     0.92973      .   S
    C1554  O6018     0.92602      .   S
    C1536  O6018     0.92602      .   S
    C1554  O6019     0.92602      .   S
    C1428  O6019     0.92602      .   S
    C1553  O6020     0.92958      .   S
    C1507  O6020     0.92958      .   S
    C1553  O6021     0.93099      .   S
    C1465  O6021     0.93099      .   S
    C1552  O6022     0.92463      .   S
    C1506  O6022     0.92463      .   S
    C1552  O6023     0.92716      .   S
    C1464  O6023     0.92716      .   S
    C1936  O6024     0.92620      .   S
    C1848  O6024     0.92620      .   S
    C1936  O6025     0.92648      .   S
    C1890  O6025     0.92648      .   S
    C1937  O6026     0.92879      .   S
    C1849  O6026     0.92879      .   S
    C1937  O6027     0.92578      .   S
    C1891  O6027     0.92578      .   S
    C1941  O6028     0.92521      .   S
    C1927  O6028     0.92521      .   S
    C1941  O6029     0.92260      .   S
    C1819  O6029     0.92260      .   S
    C1940  O6030     0.92552      .   S
    C1926  O6030     0.92552      .   S
    C1940  O6031     0.92998      .   S
    C1818  O6031     0.92998      .   S
    C1556  O6032     0.92706      .   S
    C1542  O6032     0.92706      .   S
    C1556  O6033     0.92341      .   S
    C1434  O6033     0.92341      .   S
    C1558  O6034     0.92650      .   S
    C1470  O6034     0.92650      .   S
    C1558  O6035     0.92363      .   S
    C1500  O6035     0.92363      .   S
    C1559  O6036     0.92745      .   S
    C1471  O6036     0.92745      .   S
    C1559  O6037     0.92978      .   S
    C1501  O6037     0.92978      .   S
    C1557  O6038     0.92766      .   S
    C1543  O6038     0.92766      .   S
    C1557  O6039     0.92982      .   S
    C1435  O6039     0.92982      .   S
    C1938  O6040     0.92742      .   S
    C1812  O6040     0.92742      .   S
    C1938  O6041     0.92353      .   S
    C1920  O6041     0.92353      .   S
    C1942  O6042     0.92846      .   S
    C1884  O6042     0.92846      .   S
    C1942  O6043     0.92598      .   S
    C1854  O6043     0.92598      .   S
    C1939  O6044     0.92564      .   S
    C1813  O6044     0.92564      .   S
    C1939  O6045     0.92609      .   S
    C1921  O6045     0.92609      .   S
    C1943  O6046     0.92771      .   S
    C1885  O6046     0.92771      .   S
    C1943  O6047     0.92712      .   S
    C1855  O6047     0.92712      .   S
    C1537  O6048     0.63530      .   S
    C1538  O6048     0.63530      .   S
    C1536  O6049     0.63508      .   S
    C1538  O6049     0.63508      .   S
    C1506  O6050     0.63471      .   S
    C1508  O6050     0.63471      .   S
    C1507  O6051     0.63617      .   S
    C1508  O6051     0.63617      .   S
    C1428  O6052     0.63505      .   S
    C1430  O6052     0.63505      .   S
    C1848  O6053     0.63506      .   S
    C1850  O6053     0.63506      .   S
    C1429  O6054     0.63599      .   S
    C1430  O6054     0.63599      .   S
    C1849  O6055     0.63584      .   S
    C1850  O6055     0.63584      .   S
    C1890  O6056     0.63517      .   S
    C1892  O6056     0.63517      .   S
    C1891  O6057     0.63525      .   S
    C1892  O6057     0.63525      .   S
    C1464  O6058     0.63562      .   S
    C1466  O6058     0.63562      .   S
    C1465  O6059     0.63583      .   S
    C1466  O6059     0.63583      .   S
    C1927  O6060     0.63474      .   S
    C1928  O6060     0.63474      .   S
    C1926  O6061     0.63540      .   S
    C1928  O6061     0.63540      .   S
    C1819  O6062     0.63471      .   S
    C1820  O6062     0.63471      .   S
    C1818  O6063     0.63560      .   S
    C1820  O6063     0.63560      .   S
    C1542  O6064     0.63526      .   S
    C1544  O6064     0.63526      .   S
    C1434  O6065     0.63507      .   S
    C1436  O6065     0.63507      .   S
    C1470  O6066     0.63530      .   S
    C1472  O6066     0.63530      .   S
    C1471  O6067     0.63541      .   S
    C1472  O6067     0.63541      .   S
    C1500  O6068     0.63513      .   S
    C1502  O6068     0.63513      .   S
    C1543  O6069     0.63533      .   S
    C1544  O6069     0.63533      .   S
    C1812  O6070     0.63549      .   S
    C1814  O6070     0.63549      .   S
    C1501  O6071     0.63545      .   S
    C1502  O6071     0.63545      .   S
    C1813  O6072     0.63488      .   S
    C1814  O6072     0.63488      .   S
    C1435  O6073     0.63566      .   S
    C1436  O6073     0.63566      .   S
    C1884  O6074     0.63541      .   S
    C1886  O6074     0.63541      .   S
    C1854  O6075     0.63557      .   S
    C1856  O6075     0.63557      .   S
    C1920  O6076     0.63479      .   S
    C1922  O6076     0.63479      .   S
    C1885  O6077     0.63568      .   S
    C1886  O6077     0.63568      .   S
    C1855  O6078     0.63495      .   S
    C1856  O6078     0.63495      .   S
    C1921  O6079     0.63512      .   S
    C1922  O6079     0.63512      .   S
    C1538  O6080     0.74026      .   S
    C1539  O6080     0.74026      .   S
    C1508  O6081     0.74101      .   S
    C1509  O6081     0.74101      .   S
    C1430  O6082     0.74172      .   S
    C1431  O6082     0.74172      .   S
    C1850  O6083     0.74135      .   S
    C1851  O6083     0.74135      .   S
    C1892  O6084     0.74088      .   S
    C1893  O6084     0.74088      .   S
    C1466  O6085     0.74258      .   S
    C1467  O6085     0.74258      .   S
    C1928  O6086     0.73952      .   S
    C1929  O6086     0.73952      .   S
    C1820  O6087     0.74051      .   S
    C1821  O6087     0.74051      .   S
    C1544  O6088     0.74144      .   S
    C1545  O6088     0.74144      .   S
    C1472  O6089     0.74094      .   S
    C1473  O6089     0.74094      .   S
    C1436  O6090     0.74060      .   S
    C1437  O6090     0.74060      .   S
    C1814  O6091     0.74031      .   S
    C1815  O6091     0.74031      .   S
    C1502  O6092     0.74052      .   S
    C1503  O6092     0.74052      .   S
    C1886  O6093     0.74176      .   S
    C1887  O6093     0.74176      .   S
    C1856  O6094     0.74070      .   S
    C1857  O6094     0.74070      .   S
    C1922  O6095     0.73911      .   S
    C1923  O6095     0.73911      .   S
    C1509  O6096     0.70258      .   S
    C1510  O6096     0.70258      .   S
    C1509  O6097     0.70356      .   S
    C1588  O6097     0.70356      .   S
    C1539  O6098     0.70185      .   S
    C1540  O6098     0.70185      .   S
    C1539  O6099     0.70248      .   S
    C1573  O6099     0.70248      .   S
    C1851  O6100     0.70284      .   S
    C1852  O6100     0.70284      .   S
    C1851  O6101     0.70389      .   S
    C1978  O6101     0.70389      .   S
    C1431  O6102     0.70400      .   S
    C1576  O6102     0.70400      .   S
    C1431  O6103     0.70417      .   S
    C1432  O6103     0.70417      .   S
    C1541  O6104     0.54174      .   S
    C1540  O6104     0.54174      .   S
    C1893  O6105     0.70141      .   S
    C1894  O6105     0.70141      .   S
    C1893  O6106     0.70249      .   S
    C1972  O6106     0.70249      .   S
    C1853  O6107     0.54172      .   S
    C1852  O6107     0.54172      .   S
    C1467  O6108     0.70404      .   S
    C1594  O6108     0.70404      .   S
    C1467  O6109     0.70473      .   S
    C1468  O6109     0.70473      .   S
    C1929  O6110     0.70115      .   S
    C1930  O6110     0.70115      .   S
    C1929  O6111     0.70201      .   S
    C1954  O6111     0.70201      .   S
    C1511  O6112     0.54178      .   S
    C1510  O6112     0.54178      .   S
    C1821  O6113     0.70124      .   S
    C1822  O6113     0.70124      .   S
    C1821  O6114     0.70213      .   S
    C1963  O6114     0.70213      .   S
    C1545  O6115     0.70250      .   S
    C1546  O6115     0.70250      .   S
    C1545  O6116     0.70312      .   S
    C1570  O6116     0.70312      .   S
    C1473  O6117     0.70238      .   S
    C1474  O6117     0.70238      .   S
    C1473  O6118     0.70247      .   S
    C1597  O6118     0.70247      .   S
    C1437  O6119     0.70311      .   S
    C1438  O6119     0.70311      .   S
    C1437  O6120     0.70300      .   S
    C1579  O6120     0.70300      .   S
    C1815  O6121     0.70342      .   S
    C1816  O6121     0.70342      .   S
    C1815  O6122     0.70264      .   S
    C1960  O6122     0.70264      .   S
    C1503  O6123     0.70305      .   S
    C1504  O6123     0.70305      .   S
    C1503  O6124     0.70300      .   S
    C1591  O6124     0.70300      .   S
    C1823  O6125     0.54167      .   S
    C1822  O6125     0.54167      .   S
    C1887  O6126     0.70290      .   S
    C1888  O6126     0.70290      .   S
    C1887  O6127     0.70338      .   S
    C1975  O6127     0.70338      .   S
    C1857  O6128     0.70345      .   S
    C1858  O6128     0.70345      .   S
    C1857  O6129     0.70189      .   S
    C1981  O6129     0.70189      .   S
    C1895  O6130     0.54170      .   S
    C1894  O6130     0.54170      .   S
    C1923  O6131     0.70254      .   S
    C1924  O6131     0.70254      .   S
    C1923  O6132     0.70254      .   S
    C1957  O6132     0.70254      .   S
    C1577  O6133     0.54121      .   S
    C1576  O6133     0.54121      .   S
    C1475  O6134     0.54143      .   S
    C1474  O6134     0.54143      .   S
    C1589  O6135     0.54161      .   S
    C1588  O6135     0.54161      .   S
    C1931  O6136     0.54174      .   S
    C1930  O6136     0.54174      .   S
    C1859  O6137     0.54133      .   S
    C1858  O6137     0.54133      .   S
    C1547  O6138     0.54193      .   S
    C1546  O6138     0.54193      .   S
    C1433  O6139     0.54158      .   S
    C1432  O6139     0.54158      .   S
    C1889  O6140     0.54166      .   S
    C1888  O6140     0.54166      .   S
    C1439  O6141     0.54174      .   S
    C1438  O6141     0.54174      .   S
    C1505  O6142     0.54149      .   S
    C1504  O6142     0.54149      .   S
    C1595  O6143     0.54136      .   S
    C1594  O6143     0.54136      .   S
    C1973  O6144     0.54166      .   S
    C1972  O6144     0.54166      .   S
    C1817  O6145     0.54157      .   S
    C1816  O6145     0.54157      .   S
    C1469  O6146     0.54185      .   S
    C1468  O6146     0.54185      .   S
    C1574  O6147     0.54181      .   S
    C1573  O6147     0.54181      .   S
    C1979  O6148     0.54184      .   S
    C1978  O6148     0.54184      .   S
    C1955  O6149     0.54175      .   S
    C1954  O6149     0.54175      .   S
    C1961  O6150     0.54137      .   S
    C1960  O6150     0.54137      .   S
    C1580  O6151     0.54167      .   S
    C1579  O6151     0.54167      .   S
    C1571  O6152     0.54162      .   S
    C1570  O6152     0.54162      .   S
    C1958  O6153     0.54150      .   S
    C1957  O6153     0.54150      .   S
    C1592  O6154     0.54131      .   S
    C1591  O6154     0.54131      .   S
    C1925  O6155     0.54182      .   S
    C1924  O6155     0.54182      .   S
    C1598  O6156     0.54164      .   S
    C1597  O6156     0.54164      .   S
    C4429  O6157     0.54143      .   S
    C4418  O6157     0.54143      .   S
    C1964  O6158     0.54160      .   S
    C1963  O6158     0.54160      .   S
    C1976  O6159     0.54156      .   S
    C1975  O6159     0.54156      .   S
    C1982  O6160     0.54155      .   S
    C1981  O6160     0.54155      .   S
    C1540  O6161     0.70150      .   S
    C1575  O6161     0.70150      .   S
    C1510  O6162     0.70202      .   S
    C1590  O6162     0.70202      .   S
    C1852  O6163     0.70193      .   S
    C1980  O6163     0.70193      .   S
    C1588  O6164     0.70297      .   S
    C1455  O6164     0.70297      .   S
    C4238  O6165     0.54174      .   S
    C4228  O6165     0.54174      .   S
    C1576  O6166     0.70226      .   S
    C1533  O6166     0.70226      .   S
    C4262  O6167     0.54146      .   S
    C4252  O6167     0.54146      .   S
    C1432  O6168     0.70258      .   S
    C1578  O6168     0.70258      .   S
    C1822  O6169     0.70116      .   S
    C1965  O6169     0.70116      .   S
    C1894  O6170     0.70154      .   S
    C1974  O6170     0.70154      .   S
    C1474  O6171     0.70255      .   S
    C1599  O6171     0.70255      .   S
    C1546  O6172     0.70118      .   S
    C1572  O6172     0.70118      .   S
    C1978  O6173     0.70276      .   S
    C1881  O6173     0.70276      .   S
    C1930  O6174     0.70167      .   S
    C1956  O6174     0.70167      .   S
    C1573  O6175     0.70261      .   S
    C1425  O6175     0.70261      .   S
    C1438  O6176     0.70233      .   S
    C1581  O6176     0.70233      .   S
    C1504  O6177     0.70281      .   S
    C1593  O6177     0.70281      .   S
    C1594  O6178     0.70213      .   S
    C1497  O6178     0.70213      .   S
    C1888  O6179     0.70171      .   S
    C1977  O6179     0.70171      .   S
    C1858  O6180     0.70367      .   S
    C1983  O6180     0.70367      .   S
    C1972  O6181     0.70348      .   S
    C1839  O6181     0.70348      .   S
    C1468  O6182     0.70348      .   S
    C1596  O6182     0.70348      .   S
    C1816  O6183     0.70253      .   S
    C1962  O6183     0.70253      .   S
    C1579  O6184     0.70186      .   S
    C1527  O6184     0.70186      .   S
    C1570  O6185     0.70338      .   S
    C1419  O6185     0.70338      .   S
    C1954  O6186     0.70286      .   S
    C1803  O6186     0.70286      .   S
    C1960  O6187     0.70166      .   S
    C1917  O6187     0.70166      .   S
    C2990  O6188     0.54152      .   S
    C2980  O6188     0.54152      .   S
    C1591  O6189     0.70168      .   S
    C1461  O6189     0.70168      .   S
    C1597  O6190     0.70266      .   S
    C1491  O6190     0.70266      .   S
    C4454  O6191     0.54154      .   S
    C4444  O6191     0.54154      .   S
    C1963  O6192     0.70398      .   S
    C1911  O6192     0.70398      .   S
    C1975  O6193     0.70390      .   S
    C1845  O6193     0.70390      .   S
    C1924  O6194     0.70150      .   S
    C1959  O6194     0.70150      .   S
    C1957  O6195     0.70149      .   S
    C1809  O6195     0.70149      .   S
    C1981  O6196     0.70123      .   S
    C1875  O6196     0.70123      .   S
    C4428  O6197     0.54159      .   S
    C4417  O6197     0.54159      .   S
    C4418  O6198     0.69875      .   S
    C4417  O6198     0.69875      .   S
    C4418  O6199     0.70235      .   S
    C4419  O6199     0.70235      .   S
    C1590  O6200     0.70193      .   S
    C1456  O6200     0.70193      .   S
    C1590  O6201     0.74110      .   S
    C3459  O6201     0.74110      .   S
    C1980  O6202     0.73993      .   S
    C3003  O6202     0.73993      .   S
    C1980  O6203     0.70041      .   S
    C1882  O6203     0.70041      .   S
    C4263  O6204     0.54058      .   S
    C4253  O6204     0.54058      .   S
    C1575  O6205     0.74152      .   S
    C4419  O6205     0.74152      .   S
    C1575  O6206     0.70266      .   S
    C1426  O6206     0.70266      .   S
    C4228  O6207     0.70010      .   S
    C4229  O6207     0.70010      .   S
    C4228  O6208     0.70190      .   S
    C4227  O6208     0.70190      .   S
    C1455  O6209     0.70228      .   S
    C1456  O6209     0.70228      .   S
    C1455  O6210     0.74118      .   S
    C1454  O6210     0.74118      .   S
    C4252  O6211     0.69951      .   S
    C4253  O6211     0.69951      .   S
    C4252  O6212     0.70215      .   S
    C4251  O6212     0.70215      .   S
    C4239  O6213     0.54045      .   S
    C4229  O6213     0.54045      .   S
    C1572  O6214     0.70113      .   S
    C1420  O6214     0.70113      .   S
    C1572  O6215     0.73838      .   S
    C4515  O6215     0.73838      .   S
    C1533  O6216     0.70119      .   S
    C1534  O6216     0.70119      .   S
    C1533  O6217     0.74078      .   S
    C1532  O6217     0.74078      .   S
    C1578  O6218     0.70167      .   S
    C1534  O6218     0.70167      .   S
    C1578  O6219     0.74213      .   S
    C4227  O6219     0.74213      .   S
    C1599  O6220     0.74191      .   S
    C2787  O6220     0.74191      .   S
    C1599  O6221     0.70262      .   S
    C1492  O6221     0.70262      .   S
    C1581  O6222     0.70080      .   S
    C1528  O6222     0.70080      .   S
    C1581  O6223     0.74041      .   S
    C4035  O6223     0.74041      .   S
    C1881  O6224     0.70111      .   S
    C1882  O6224     0.70111      .   S
    C1881  O6225     0.74031      .   S
    C1880  O6225     0.74031      .   S
    C1965  O6226     0.74148      .   S
    C4059  O6226     0.74148      .   S
    C1965  O6227     0.70247      .   S
    C1912  O6227     0.70247      .   S
    C1593  O6228     0.70140      .   S
    C1462  O6228     0.70140      .   S
    C1593  O6229     0.74035      .   S
    C3171  O6229     0.74035      .   S
    C1977  O6230     0.70125      .   S
    C1846  O6230     0.70125      .   S
    C1977  O6231     0.74089      .   S
    C3195  O6231     0.74089      .   S
    C1983  O6232     0.74326      .   S
    C2811  O6232     0.74326      .   S
    C1983  O6233     0.70226      .   S
    C1876  O6233     0.70226      .   S
    C1974  O6234     0.70197      .   S
    C1840  O6234     0.70197      .   S
    C1974  O6235     0.74159      .   S
    C3483  O6235     0.74159      .   S
    C2980  O6236     0.70030      .   S
    C2981  O6236     0.70030      .   S
    C2980  O6237     0.70167      .   S
    C2979  O6237     0.70167      .   S
    C1425  O6238     0.70323      .   S
    C1426  O6238     0.70323      .   S
    C1425  O6239     0.74108      .   S
    C1424  O6239     0.74108      .   S
    C1419  O6240     0.70197      .   S
    C1420  O6240     0.70197      .   S
    C1419  O6241     0.74108      .   S
    C1418  O6241     0.74108      .   S
    C4444  O6242     0.69888      .   S
    C4445  O6242     0.69888      .   S
    C4444  O6243     0.70147      .   S
    C4443  O6243     0.70147      .   S
    C1956  O6244     0.70207      .   S
    C1804  O6244     0.70207      .   S
    C1956  O6245     0.74097      .   S
    C4539  O6245     0.74097      .   S
    C1962  O6246     0.70160      .   S
    C1918  O6246     0.70160      .   S
    C1962  O6247     0.74157      .   S
    C4251  O6247     0.74157      .   S
    C1527  O6248     0.70121      .   S
    C1528  O6248     0.70121      .   S
    C1527  O6249     0.73963      .   S
    C1526  O6249     0.73963      .   S
    C1497  O6250     0.70076      .   S
    C1498  O6250     0.70076      .   S
    C1497  O6251     0.74049      .   S
    C1496  O6251     0.74049      .   S
    C1839  O6252     0.70353      .   S
    C1840  O6252     0.70353      .   S
    C1839  O6253     0.74149      .   S
    C1838  O6253     0.74149      .   S
    C1461  O6254     0.70141      .   S
    C1462  O6254     0.70141      .   S
    C1461  O6255     0.73953      .   S
    C1460  O6255     0.73953      .   S
    C1596  O6256     0.70146      .   S
    C1498  O6256     0.70146      .   S
    C1596  O6257     0.74223      .   S
    C2979  O6257     0.74223      .   S
    C4455  O6258     0.54030      .   S
    C4445  O6258     0.54030      .   S
    C1491  O6259     0.70229      .   S
    C1492  O6259     0.70229      .   S
    C1491  O6260     0.74084      .   S
    C1490  O6260     0.74084      .   S
    C1917  O6261     0.70154      .   S
    C1918  O6261     0.70154      .   S
    C1917  O6262     0.73938      .   S
    C1916  O6262     0.73938      .   S
    C1845  O6263     0.70163      .   S
    C1846  O6263     0.70163      .   S
    C1845  O6264     0.74106      .   S
    C1844  O6264     0.74106      .   S
    C2991  O6265     0.54029      .   S
    C2981  O6265     0.54029      .   S
    C1803  O6266     0.70311      .   S
    C1804  O6266     0.70311      .   S
    C1803  O6267     0.73998      .   S
    C1802  O6267     0.73998      .   S
    C1911  O6268     0.70355      .   S
    C1912  O6268     0.70355      .   S
    C1911  O6269     0.74124      .   S
    C1910  O6269     0.74124      .   S
    C1875  O6270     0.70177      .   S
    C1876  O6270     0.70177      .   S
    C1875  O6271     0.73960      .   S
    C1874  O6271     0.73960      .   S
    C1959  O6272     0.70078      .   S
    C1810  O6272     0.70078      .   S
    C1959  O6273     0.73949      .   S
    C4443  O6273     0.73949      .   S
    C1809  O6274     0.70081      .   S
    C1810  O6274     0.70081      .   S
    C1809  O6275     0.73854      .   S
    C1808  O6275     0.73854      .   S
    C1452  O6276     0.63556      .   S
    C1454  O6276     0.63556      .   S
    C1452  O6277     0.92889      .   S
    C1548  O6277     0.92889  1_455   S
    C1530  O6278     0.63520      .   S
    C1532  O6278     0.63520      .   S
    C1530  O6279     0.92774      .   S
    C1548  O6279     0.92774      .   S
    C4417  O6280     0.70212      .   S
    C4416  O6280     0.70212      .   S
    C1494  O6281     0.63492      .   S
    C1496  O6281     0.63492      .   S
    C1494  O6282     0.92663      .   S
    C1560  O6282     0.92663      .   S
    C1416  O6283     0.63519      .   S
    C1418  O6283     0.63519      .   S
    C1416  O6284     0.92612      .   S
    C1560  O6284     0.92612      .   S
    C1524  O6285     0.63526      .   S
    C1526  O6285     0.63526      .   S
    C1524  O6286     0.92609      .   S
    C1550  O6286     0.92609  1_455   S
    C1458  O6287     0.63512      .   S
    C1460  O6287     0.63512      .   S
    C1458  O6288     0.92661      .   S
    C1550  O6288     0.92661      .   S
    C1422  O6289     0.63520      .   S
    C1424  O6289     0.63520      .   S
    C1422  O6290     0.92600      .   S
    C1562  O6290     0.92600      .   S
    C1878  O6291     0.63474      .   S
    C1880  O6291     0.63474      .   S
    C1878  O6292     0.92457      .   S
    C1944  O6292     0.92457      .   S
    C1488  O6293     0.63511      .   S
    C1490  O6293     0.63511      .   S
    C1488  O6294     0.92446      .   S
    C1562  O6294     0.92446      .   S
    C1836  O6295     0.63508      .   S
    C1838  O6295     0.63508      .   S
    C1836  O6296     0.92623      .   S
    C1932  O6296     0.92623      .   S
    C1914  O6297     0.63527      .   S
    C1916  O6297     0.63527      .   S
    C1914  O6298     0.92518      .   S
    C1932  O6298     0.92518      .   S
    C1806  O6299     0.63489      .   S
    C1808  O6299     0.63489      .   S
    C1806  O6300     0.92532      .   S
    C1946  O6300     0.92532  1_545   S
    C4525  O6301     0.54150      .   S
    C4514  O6301     0.54150      .   S
    C4069  O6302     0.54165      .   S
    C4058  O6302     0.54165      .   S
    C1842  O6303     0.63485      .   S
    C1844  O6303     0.63485      .   S
    C1842  O6304     0.92476      .   S
    C1934  O6304     0.92476      .   S
    C1800  O6305     0.63527      .   S
    C1802  O6305     0.63527      .   S
    C1800  O6306     0.92567      .   S
    C1944  O6306     0.92567  1_565   S
    C1872  O6307     0.63550      .   S
    C1874  O6307     0.63550      .   S
    C1872  O6308     0.92689      .   S
    C1946  O6308     0.92689      .   S
    C1908  O6309     0.63504      .   S
    C1910  O6309     0.63504      .   S
    C1908  O6310     0.92583      .   S
    C1934  O6310     0.92583      .   S
    C1456  O6311     0.54160      .   S
    C1457  O6311     0.54160      .   S
    C4549  O6312     0.54152      .   S
    C4538  O6312     0.54152      .   S
    C2798  O6313     0.54154      .   S
    C2788  O6313     0.54154      .   S
    C3493  O6314     0.54173      .   S
    C3482  O6314     0.54173      .   S
    C3003  O6315     0.70135      .   S
    C3004  O6315     0.70135      .   S
    C3003  O6316     0.70190      .   S
    C3002  O6316     0.70190      .   S
    C3470  O6317     0.54151      .   S
    C3460  O6317     0.54151      .   S
    C3014  O6318     0.54168      .   S
    C3004  O6318     0.54168      .   S
    C1882  O6319     0.54168      .   S
    C1883  O6319     0.54168      .   S
    C3459  O6320     0.70200      .   S
    C3460  O6320     0.70200      .   S
    C3459  O6321     0.70201      .   S
    C3458  O6321     0.70201      .   S
    C2822  O6322     0.54165      .   S
    C2812  O6322     0.54165      .   S
    C4419  O6323     0.70208      .   S
    C4420  O6323     0.70208      .   S
    C1534  O6324     0.54168      .   S
    C1535  O6324     0.54168      .   S
    C1420  O6325     0.54198      .   S
    C1421  O6325     0.54198      .   S
    C4515  O6326     0.70181      .   S
    C4514  O6326     0.70181      .   S
    C4515  O6327     0.70183      .   S
    C4516  O6327     0.70183      .   S
    C4253  O6328     0.70496      .   S
    C4248  O6328     0.70496      .   S
    C1426  O6329     0.54141      .   S
    C1427  O6329     0.54141      .   S
    C1528  O6330     0.54181      .   S
    C1529  O6330     0.54181      .   S
    C4229  O6331     0.70486      .   S
    C4224  O6331     0.70486      .   S
    C2787  O6332     0.70264      .   S
    C2788  O6332     0.70264      .   S
    C2787  O6333     0.70230      .   S
    C2786  O6333     0.70230      .   S
    C4059  O6334     0.70252      .   S
    C4058  O6334     0.70252      .   S
    C4059  O6335     0.70165      .   S
    C4060  O6335     0.70165      .   S
    C1462  O6336     0.54171      .   S
    C1463  O6336     0.54171      .   S
    C1492  O6337     0.54164      .   S
    C1493  O6337     0.54164      .   S
    C3206  O6338     0.54142      .   S
    C3196  O6338     0.54142      .   S
    C1846  O6339     0.54147      .   S
    C1847  O6339     0.54147      .   S
    C2811  O6340     0.70218      .   S
    C2812  O6340     0.70218      .   S
    C2811  O6341     0.70248      .   S
    C2810  O6341     0.70248      .   S
    C1840  O6342     0.54170      .   S
    C1841  O6342     0.54170      .   S
    C1454  O6343     0.63535      .   S
    C1453  O6343     0.63535      .   S
    C4035  O6344     0.70122      .   S
    C4036  O6344     0.70122      .   S
    C4035  O6345     0.70187      .   S
    C4034  O6345     0.70187      .   S
    C1918  O6346     0.54161      .   S
    C1919  O6346     0.54161      .   S
    C3171  O6347     0.70132      .   S
    C3172  O6347     0.70132      .   S
    C3171  O6348     0.70212      .   S
    C3170  O6348     0.70212      .   S
    C3195  O6349     0.70195      .   S
    C3196  O6349     0.70195      .   S
    C3195  O6350     0.70167      .   S
    C3194  O6350     0.70167      .   S
    C1876  O6351     0.54179      .   S
    C1877  O6351     0.54179      .   S
    C1912  O6352     0.54183      .   S
    C1913  O6352     0.54183      .   S
    C1498  O6353     0.54135      .   S
    C1499  O6353     0.54135      .   S
    C1532  O6354     0.63531      .   S
    C1531  O6354     0.63531      .   S
    C3013  O6355     0.54161      .   S
    C3002  O6355     0.54161      .   S
    C3483  O6356     0.70213      .   S
    C3482  O6356     0.70213      .   S
    C3483  O6357     0.70224      .   S
    C3484  O6357     0.70224      .   S
    C1804  O6358     0.54150      .   S
    C1805  O6358     0.54150      .   S
    C3182  O6359     0.54174      .   S
    C3172  O6359     0.54174      .   S
    C4227  O6360     0.70255      .   S
    C4226  O6360     0.70255      .   S
    C4058  O6361     0.69764      .   S
    C4057  O6361     0.69764      .   S
    C4046  O6362     0.54176      .   S
    C4036  O6362     0.54176      .   S
    C4514  O6363     0.69920      .   S
    C4513  O6363     0.69920      .   S
    C3469  O6364     0.54127      .   S
    C3458  O6364     0.54127      .   S
    C4539  O6365     0.70236      .   S
    C4538  O6365     0.70236      .   S
    C4539  O6366     0.70198      .   S
    C4540  O6366     0.70198      .   S
    C4445  O6367     0.70483      .   S
    C4440  O6367     0.70483      .   S
    C1810  O6368     0.54183      .   S
    C1811  O6368     0.54183      .   S
    C2981  O6369     0.70580      .   S
    C2976  O6369     0.70580      .   S
    C4251  O6370     0.70217      .   S
    C4250  O6370     0.70217      .   S
    C3004  O6371     0.69808      .   S
    C3005  O6371     0.69808      .   S
    C1880  O6372     0.63581      .   S
    C1879  O6372     0.63581      .   S
    C3460  O6373     0.69857      .   S
    C3461  O6373     0.69857      .   S
    C1496  O6374     0.63555      .   S
    C1495  O6374     0.63555      .   S
    C1418  O6375     0.63559      .   S
    C1417  O6375     0.63559      .   S
    C2788  O6376     0.69872      .   S
    C2789  O6376     0.69872      .   S
    C1526  O6377     0.63504      .   S
    C1525  O6377     0.63504      .   S
    C1424  O6378     0.63526      .   S
    C1423  O6378     0.63526      .   S
    C2979  O6379     0.70252      .   S
    C2978  O6379     0.70252      .   S
    C1460  O6380     0.63460      .   S
    C1459  O6380     0.63460      .   S
    C1838  O6381     0.63541      .   S
    C1837  O6381     0.63541      .   S
    C1916  O6382     0.63506      .   S
    C1915  O6382     0.63506      .   S
    C1490  O6383     0.63555      .   S
    C1489  O6383     0.63555      .   S
    C4045  O6384     0.54139      .   S
    C4034  O6384     0.54139      .   S
    C3482  O6385     0.69742      .   S
    C3481  O6385     0.69742      .   S
    C2812  O6386     0.69957      .   S
    C2813  O6386     0.69957      .   S
    C3181  O6387     0.54137      .   S
    C3170  O6387     0.54137      .   S
    C4538  O6388     0.69705      .   S
    C4537  O6388     0.69705      .   S
    C4443  O6389     0.70246      .   S
    C4442  O6389     0.70246      .   S
    C1844  O6390     0.63599      .   S
    C1843  O6390     0.63599      .   S
    C1808  O6391     0.63459      .   S
    C1807  O6391     0.63459      .   S
    C1802  O6392     0.63515      .   S
    C1801  O6392     0.63515      .   S
    C1874  O6393     0.63477      .   S
    C1873  O6393     0.63477      .   S
    C3002  O6394     0.69835      .   S
    C3001  O6394     0.69835      .   S
    C1910  O6395     0.63560      .   S
    C1909  O6395     0.63560      .   S
    C3205  O6396     0.54164      .   S
    C3194  O6396     0.54164      .   S
    C3196  O6397     0.69816      .   S
    C3197  O6397     0.69816      .   S
    C4526  O6398     0.54181      .   S
    C4516  O6398     0.54181      .   S
    C3458  O6399     0.69878      .   S
    C3457  O6399     0.69878      .   S
    C2797  O6400     0.54140      .   S
    C2786  O6400     0.54140      .   S
    C2821  O6401     0.54143      .   S
    C2810  O6401     0.54143      .   S
    C3172  O6402     0.69836      .   S
    C3173  O6402     0.69836      .   S
    C4036  O6403     0.69842      .   S
    C4037  O6403     0.69842      .   S
    C1548  O6404     0.92774  1_455   S
    C1482  O6404     0.92774      .   S
    C1548  O6405     0.92843      .   S
    C1404  O6405     0.92843      .   S
    C4070  O6406     0.54155      .   S
    C4060  O6406     0.54155      .   S
    C4516  O6407     0.69877      .   S
    C4517  O6407     0.69877      .   S
    C4034  O6408     0.69889      .   S
    C4033  O6408     0.69889      .   S
    C3170  O6409     0.69894      .   S
    C3169  O6409     0.69894      .   S
    C2786  O6410     0.69885      .   S
    C2785  O6410     0.69885      .   S
    C4060  O6411     0.69956      .   S
    C4061  O6411     0.69956      .   S
    C1560  O6412     0.92577      .   S
    C1440  O6412     0.92577      .   S
    C1560  O6413     0.92625      .   S
    C1518  O6413     0.92625      .   S
    C3194  O6414     0.69896      .   S
    C3193  O6414     0.69896      .   S
    C1550  O6415     0.92643  1_455   S
    C1410  O6415     0.92643      .   S
    C1550  O6416     0.92668      .   S
    C1476  O6416     0.92668      .   S
    C3494  O6417     0.54168      .   S
    C3484  O6417     0.54168      .   S
    C2810  O6418     0.69908      .   S
    C2809  O6418     0.69908      .   S
    C1562  O6419     0.92426      .   S
    C1512  O6419     0.92426      .   S
    C1562  O6420     0.92569      .   S
    C1446  O6420     0.92569      .   S
    C4258  O6421     0.54067      .   S
    C4246  O6421     0.54067      .   S
    C1932  O6422     0.92557      .   S
    C1866  O6422     0.92557      .   S
    C1932  O6423     0.92579      .   S
    C1788  O6423     0.92579      .   S
    C4550  O6424     0.54167      .   S
    C4540  O6424     0.54167      .   S
    C1946  O6425     0.92669  1_545   S
    C1896  O6425     0.92669      .   S
    C1946  O6426     0.92555      .   S
    C1830  O6426     0.92555      .   S
    C1944  O6427     0.92596      .   S
    C1824  O6427     0.92596      .   S
    C1944  O6428     0.92468  1_565   S
    C1902  O6428     0.92468      .   S
    C3484  O6429     0.69956      .   S
    C3485  O6429     0.69956      .   S
    C4234  O6430     0.54046      .   S
    C4222  O6430     0.54046      .   S
    C1934  O6431     0.92396      .   S
    C1794  O6431     0.92396      .   S
    C1934  O6432     0.92520      .   S
    C1860  O6432     0.92520      .   S
    C4540  O6433     0.69948      .   S
    C4541  O6433     0.69948      .   S
    C4057  O6434     0.54160      .   S
    C4068  O6434     0.54160      .   S
    C4057  O6435     0.70122      .   S
    C4056  O6435     0.70122      .   S
    C4450  O6436     0.54098      .   S
    C4438  O6436     0.54098      .   S
    C4513  O6437     0.54140      .   S
    C4524  O6437     0.54140      .   S
    C4513  O6438     0.70123      .   S
    C4512  O6438     0.70123      .   S
    C2986  O6439     0.54066      .   S
    C2974  O6439     0.54066      .   S
    C4427  O6440     0.54073      .   S
    C4415  O6440     0.54073      .   S
    C2789  O6441     0.54069      .   S
    C2799  O6441     0.54069      .   S
    C2789  O6442     0.70420      .   S
    C2784  O6442     0.70420      .   S
    C3481  O6443     0.54181      .   S
    C3492  O6443     0.54181      .   S
    C3481  O6444     0.70129      .   S
    C3480  O6444     0.70129      .   S
    C4537  O6445     0.54199      .   S
    C4548  O6445     0.54199      .   S
    C4537  O6446     0.70156      .   S
    C4536  O6446     0.70156      .   S
    C3461  O6447     0.53997      .   S
    C3471  O6447     0.53997      .   S
    C3461  O6448     0.70496      .   S
    C3456  O6448     0.70496      .   S
    C3005  O6449     0.54012      .   S
    C3015  O6449     0.54012      .   S
    C3005  O6450     0.70507      .   S
    C3000  O6450     0.70507      .   S
    C4255  O6451     0.54182      .   S
    C4241  O6451     0.54182      .   S
    C2813  O6452     0.54037      .   S
    C2823  O6452     0.54037      .   S
    C2813  O6453     0.70465      .   S
    C2808  O6453     0.70465      .   S
    C3001  O6454     0.70201      .   S
    C3000  O6454     0.70201      .   S
    C3001  O6455     0.54155      .   S
    C3012  O6455     0.54155      .   S
    C3457  O6456     0.70217      .   S
    C3456  O6456     0.70217      .   S
    C3457  O6457     0.54174      .   S
    C3468  O6457     0.54174      .   S
    C3197  O6458     0.54021      .   S
    C3207  O6458     0.54021      .   S
    C3197  O6459     0.70460      .   S
    C3192  O6459     0.70460      .   S
    C2983  O6460     0.54181      .   S
    C2969  O6460     0.54181      .   S
    C4061  O6461     0.70483      .   S
    C4056  O6461     0.70483      .   S
    C4061  O6462     0.54061      .   S
    C4071  O6462     0.54061      .   S
    C4517  O6463     0.70283      .   S
    C4512  O6463     0.70283      .   S
    C4517  O6464     0.54131      .   S
    C4527  O6464     0.54131      .   S
    C4416  O6465     0.74298      .   S
    C4415  O6465     0.74298      .   S
    C4416  O6466     0.70463      .   S
    C4421  O6466     0.70463      .   S
    C4231  O6467     0.54188      .   S
    C4217  O6467     0.54188      .   S
    C3173  O6468     0.54016      .   S
    C3183  O6468     0.54016      .   S
    C3173  O6469     0.70499      .   S
    C3168  O6469     0.70499      .   S
    C4037  O6470     0.53985      .   S
    C4047  O6470     0.53985      .   S
    C4037  O6471     0.70516      .   S
    C4032  O6471     0.70516      .   S
    C4447  O6472     0.54155      .   S
    C4433  O6472     0.54155      .   S
    C2785  O6473     0.70172      .   S
    C2784  O6473     0.70172      .   S
    C2785  O6474     0.54174      .   S
    C2796  O6474     0.54174      .   S
    C4056  O6475     0.74174      .   S
    C4055  O6475     0.74174      .   S
    C2791  O6476     0.54179      .   S
    C2777  O6476     0.54179      .   S
    C3193  O6477     0.70212      .   S
    C3192  O6477     0.70212      .   S
    C3193  O6478     0.54165      .   S
    C3204  O6478     0.54165      .   S
    C3169  O6479     0.54167      .   S
    C3180  O6479     0.54167      .   S
    C3169  O6480     0.70207      .   S
    C3168  O6480     0.70207      .   S
    C2809  O6481     0.70176      .   S
    C2808  O6481     0.70176      .   S
    C2809  O6482     0.54190      .   S
    C2820  O6482     0.54190      .   S
    C4033  O6483     0.54160      .   S
    C4044  O6483     0.54160      .   S
    C4033  O6484     0.70203      .   S
    C4032  O6484     0.70203      .   S
    C2794  O6485     0.54091      .   S
    C2782  O6485     0.54091      .   S
    C4512  O6486     0.73844      .   S
    C4511  O6486     0.73844      .   S
    C3485  O6487     0.70492      .   S
    C3480  O6487     0.70492      .   S
    C3485  O6488     0.54018      .   S
    C3495  O6488     0.54018      .   S
    C1453  O6489     0.92546      .   S
    C1549  O6489     0.92546  1_455   S
    C1531  O6490     0.92527      .   S
    C1549  O6490     0.92527      .   S
    C4541  O6491     0.70450      .   S
    C4536  O6491     0.70450      .   S
    C4541  O6492     0.54040      .   S
    C4551  O6492     0.54040      .   S
    C3456  O6493     0.74285      .   S
    C3455  O6493     0.74285      .   S
    C3000  O6494     0.74220      .   S
    C2999  O6494     0.74220      .   S
    C2784  O6495     0.74210      .   S
    C2783  O6495     0.74210      .   S
    C4523  O6496     0.54267      .   S
    C4511  O6496     0.54267      .   S
    C3480  O6497     0.74173      .   S
    C3479  O6497     0.74173      .   S
    C2818  O6498     0.54084      .   S
    C2806  O6498     0.54084      .   S
    C1879  O6499     0.92762      .   S
    C1945  O6499     0.92762      .   S
    C1495  O6500     0.92612      .   S
    C1561  O6500     0.92612      .   S
    C1417  O6501     0.92863      .   S
    C1561  O6501     0.92863      .   S
    C1525  O6502     0.92405      .   S
    C1551  O6502     0.92405  1_455   S
    C1837  O6503     0.92847      .   S
    C1933  O6503     0.92847      .   S
    C1915  O6504     0.92453      .   S
    C1933  O6504     0.92453      .   S
    C2808  O6505     0.74351      .   S
    C2807  O6505     0.74351      .   S
    C1459  O6506     0.92432      .   S
    C1551  O6506     0.92432      .   S
    C1423  O6507     0.92822      .   S
    C1563  O6507     0.92822      .   S
    C4536  O6508     0.74095      .   S
    C4535  O6508     0.74095      .   S
    C1489  O6509     0.92923      .   S
    C1563  O6509     0.92923      .   S
    C4420  O6510     0.69899      .   S
    C4421  O6510     0.69899      .   S
    C4420  O6511     0.54150      .   S
    C4430  O6511     0.54150      .   S
    C2815  O6512     0.54156      .   S
    C2801  O6512     0.54156      .   S
    C1843  O6513     0.92973      .   S
    C1935  O6513     0.92973      .   S
    C4520  O6514     0.54143      .   S
    C4507  O6514     0.54143      .   S
    C1801  O6515     0.92633      .   S
    C1945  O6515     0.92633  1_565   S
    C3192  O6516     0.74219      .   S
    C3191  O6516     0.74219      .   S
    C4067  O6517     0.54097      .   S
    C4055  O6517     0.54097      .   S
    C1807  O6518     0.92270      .   S
    C1947  O6518     0.92270  1_545   S
    C1909  O6519     0.92890      .   S
    C1935  O6519     0.92890      .   S
    C1873  O6520     0.92436      .   S
    C1947  O6520     0.92436      .   S
    C3466  O6521     0.54037      .   S
    C3454  O6521     0.54037      .   S
    C4248  O6522     0.74191      .   S
    C4247  O6522     0.74191      .   S
    C4248  O6523     0.70139      .   S
    C4249  O6523     0.70139      .   S
    C3168  O6524     0.74337      .   S
    C3167  O6524     0.74337      .   S
    C4224  O6525     0.70136      .   S
    C4225  O6525     0.70136      .   S
    C4224  O6526     0.74232      .   S
    C4223  O6526     0.74232      .   S
    C4032  O6527     0.74331      .   S
    C4031  O6527     0.74331      .   S
    C3010  O6528     0.54022      .   S
    C2998  O6528     0.54022      .   S
    C3202  O6529     0.54064      .   S
    C3190  O6529     0.54064      .   S
    C1482  O6530     0.63518      .   S
    C1484  O6530     0.63518      .   S
    C1404  O6531     0.63579      .   S
    C1406  O6531     0.63579      .   S
    C4064  O6532     0.54051      .   S
    C4051  O6532     0.54051      .   S
    C4226  O6533     0.54171      .   S
    C4237  O6533     0.54171      .   S
    C4226  O6534     0.69762      .   S
    C4225  O6534     0.69762      .   S
    C4415  O6535     0.67141      .   S
    C4414  O6535     0.67141      .   S
    C4246  O6536     0.67068      .   S
    C4247  O6536     0.67068      .   S
    C4246  O6537     0.74188      .   S
    C4242  O6537     0.74188      .   S
    C3463  O6538     0.54181      .   S
    C3449  O6538     0.54181      .   S
    C1440  O6539     0.63546      .   S
    C1442  O6539     0.63546      .   S
    C1512  O6540     0.63520      .   S
    C1514  O6540     0.63520      .   S
    C4440  O6541     0.73974      .   S
    C4439  O6541     0.73974      .   S
    C4440  O6542     0.70085      .   S
    C4441  O6542     0.70085      .   S
    C1410  O6543     0.63533      .   S
    C1412  O6543     0.63533      .   S
    C1518  O6544     0.63535      .   S
    C1520  O6544     0.63535      .   S
    C1476  O6545     0.63529      .   S
    C1478  O6545     0.63529      .   S
    C4250  O6546     0.69731      .   S
    C4249  O6546     0.69731      .   S
    C4250  O6547     0.54173      .   S
    C4261  O6547     0.54173      .   S
    C3199  O6548     0.54189      .   S
    C3185  O6548     0.54189      .   S
    C2976  O6549     0.70168      .   S
    C2977  O6549     0.70168      .   S
    C2976  O6550     0.74404      .   S
    C2975  O6550     0.74404      .   S
    C1446  O6551     0.63535      .   S
    C1448  O6551     0.63535      .   S
    C3007  O6552     0.54195      .   S
    C2993  O6552     0.54195      .   S
    C1866  O6553     0.63499      .   S
    C1868  O6553     0.63499      .   S
    C4055  O6554     0.67043      .   S
    C4054  O6554     0.67043      .   S
    C1788  O6555     0.63525      .   S
    C1790  O6555     0.63525      .   S
    C2978  O6556     0.54170      .   S
    C2989  O6556     0.54170      .   S
    C2978  O6557     0.69810      .   S
    C2977  O6557     0.69810      .   S
    C1896  O6558     0.63502      .   S
    C1898  O6558     0.63502      .   S
    C3491  O6559     0.54120      .   S
    C3479  O6559     0.54120      .   S
    C1830  O6560     0.63522      .   S
    C1832  O6560     0.63522      .   S
    C4222  O6561     0.67069      .   S
    C4223  O6561     0.67069      .   S
    C4222  O6562     0.74222      .   S
    C4218  O6562     0.74222      .   S
    C1824  O6563     0.63536      .   S
    C1826  O6563     0.63536      .   S
    C3488  O6564     0.54055      .   S
    C3475  O6564     0.54055      .   S
    C4442  O6565     0.54119      .   S
    C4453  O6565     0.54119      .   S
    C4442  O6566     0.69715      .   S
    C4441  O6566     0.69715      .   S
    C3178  O6567     0.54022      .   S
    C3166  O6567     0.54022      .   S
    C1902  O6568     0.63500      .   S
    C1904  O6568     0.63500      .   S
    C4547  O6569     0.54128      .   S
    C4535  O6569     0.54128      .   S
    C4424  O6570     0.54052      .   S
    C4411  O6570     0.54052      .   S
    C4511  O6571     0.67009      .   S
    C4510  O6571     0.67009      .   S
    C4544  O6572     0.54097      .   S
    C4531  O6572     0.54097      .   S
    C4042  O6573     0.54033      .   S
    C4030  O6573     0.54033      .   S
    C1794  O6574     0.63504      .   S
    C1796  O6574     0.63504      .   S
    C4438  O6575     0.66962      .   S
    C4439  O6575     0.66962      .   S
    C4438  O6576     0.74013      .   S
    C4434  O6576     0.74013      .   S
    C1860  O6577     0.63546      .   S
    C1862  O6577     0.63546      .   S
    C4241  O6578     0.70102      .   S
    C4242  O6578     0.70102      .   S
    C4241  O6579     0.69842      .   S
    C4240  O6579     0.69842      .   S
    C1565  O6580     0.54156      .   S
    C1564  O6580     0.54156      .   S
    C2974  O6581     0.67095      .   S
    C2975  O6581     0.67095      .   S
    C2974  O6582     0.74305      .   S
    C2970  O6582     0.74305      .   S
    C1583  O6583     0.54161      .   S
    C1582  O6583     0.54161      .   S
    C1568  O6584     0.54138      .   S
    C1567  O6584     0.54138      .   S
    C2782  O6585     0.67112      .   S
    C2783  O6585     0.67112      .   S
    C2782  O6586     0.74167      .   S
    C2778  O6586     0.74167      .   S
    C1586  O6587     0.54154      .   S
    C1585  O6587     0.54154      .   S
    C3479  O6588     0.67083      .   S
    C3478  O6588     0.67083      .   S
    C4421  O6589     0.54023      .   S
    C4431  O6589     0.54023      .   S
    C3175  O6590     0.54185      .   S
    C3161  O6590     0.54185      .   S
    C4535  O6591     0.67072      .   S
    C4534  O6591     0.67072      .   S
    C1967  O6592     0.54172      .   S
    C1966  O6592     0.54172      .   S
    C1949  O6593     0.54147      .   S
    C1948  O6593     0.54147      .   S
    C4039  O6594     0.54194      .   S
    C4025  O6594     0.54194      .   S
    C2783  O6595     0.54116      .   S
    C2795  O6595     0.54116      .   S
    C3455  O6596     0.67149      .   S
    C3454  O6596     0.67149      .   S
    C3455  O6597     0.54076      .   S
    C3467  O6597     0.54076      .   S
    C4217  O6598     0.70044      .   S
    C4218  O6598     0.70044      .   S
    C4217  O6599     0.69793      .   S
    C4216  O6599     0.69793      .   S
    C2806  O6600     0.67102      .   S
    C2807  O6600     0.67102      .   S
    C2806  O6601     0.74297      .   S
    C2802  O6601     0.74297      .   S
    C1952  O6602     0.54164      .   S
    C1951  O6602     0.54164      .   S
    C2999  O6603     0.67033      .   S
    C2998  O6603     0.67033      .   S
    C2999  O6604     0.54054      .   S
    C3011  O6604     0.54054      .   S
    C3454  O6605     0.74240      .   S
    C3450  O6605     0.74240      .   S
    C2969  O6606     0.70048      .   S
    C2970  O6606     0.70048      .   S
    C2969  O6607     0.69686      .   S
    C2968  O6607     0.69686      .   S
    C4433  O6608     0.70032      .   S
    C4434  O6608     0.70032      .   S
    C4433  O6609     0.69757      .   S
    C4432  O6609     0.69757      .   S
    C1970  O6610     0.54162      .   S
    C1969  O6610     0.54162      .   S
    C4254  O6611     0.54041      .   S
    C4240  O6611     0.54041      .   S
    C2998  O6612     0.74110      .   S
    C2994  O6612     0.74110      .   S
    C2777  O6613     0.70151      .   S
    C2778  O6613     0.70151      .   S
    C2777  O6614     0.69880      .   S
    C2776  O6614     0.69880      .   S
    C2807  O6615     0.54080      .   S
    C2819  O6615     0.54080      .   S
    C3190  O6616     0.67108      .   S
    C3191  O6616     0.67108      .   S
    C3190  O6617     0.74140      .   S
    C3186  O6617     0.74140      .   S
    C3191  O6618     0.54073      .   S
    C3203  O6618     0.54073      .   S
    C4247  O6619     0.54099      .   S
    C4259  O6619     0.54099      .   S
    C2982  O6620     0.54029      .   S
    C2968  O6620     0.54029      .   S
    C3167  O6621     0.67075      .   S
    C3166  O6621     0.67075      .   S
    C3167  O6622     0.54064      .   S
    C3179  O6622     0.54064      .   S
    C4249  O6623     0.54195      .   S
    C4260  O6623     0.54195      .   S
    C4225  O6624     0.54166      .   S
    C4236  O6624     0.54166      .   S
    C4031  O6625     0.67051      .   S
    C4030  O6625     0.67051      .   S
    C4031  O6626     0.54054      .   S
    C4043  O6626     0.54054      .   S
    C4223  O6627     0.54127      .   S
    C4235  O6627     0.54127      .   S
    C4230  O6628     0.54022      .   S
    C4216  O6628     0.54022      .   S
    C3166  O6629     0.74197      .   S
    C3162  O6629     0.74197      .   S
    C2801  O6630     0.70095      .   S
    C2802  O6630     0.70095      .   S
    C2801  O6631     0.69794      .   S
    C2800  O6631     0.69794      .   S
    C4446  O6632     0.54031      .   S
    C4432  O6632     0.54031      .   S
    C1549  O6633     0.92477  1_455   S
    C1483  O6633     0.92477      .   S
    C1549  O6634     0.92601      .   S
    C1405  O6634     0.92601      .   S
    C4030  O6635     0.74187      .   S
    C4026  O6635     0.74187      .   S
    C2790  O6636     0.54034      .   S
    C2776  O6636     0.54034      .   S
    C4242  O6637     0.70370      .   S
    C4243  O6637     0.70370      .   S
    C4439  O6638     0.54125      .   S
    C4451  O6638     0.54125      .   S
    C2977  O6639     0.54170      .   S
    C2988  O6639     0.54170      .   S
    C4521  O6640     0.54115      .   S
    C4508  O6640     0.54115      .   S
    C4441  O6641     0.54160      .   S
    C4452  O6641     0.54160      .   S
    C3449  O6642     0.70135      .   S
    C3450  O6642     0.70135      .   S
    C3449  O6643     0.69826      .   S
    C3448  O6643     0.69826      .   S
    C2975  O6644     0.54068      .   S
    C2987  O6644     0.54068      .   S
    C2993  O6645     0.70055      .   S
    C2994  O6645     0.70055      .   S
    C2993  O6646     0.69682      .   S
    C2992  O6646     0.69682      .   S
    C1561  O6647     0.92912      .   S
    C1441  O6647     0.92912      .   S
    C1561  O6648     0.92661      .   S
    C1519  O6648     0.92661      .   S
    C1551  O6649     0.92405  1_455   S
    C1411  O6649     0.92405      .   S
    C1551  O6650     0.92428      .   S
    C1477  O6650     0.92428      .   S
    C3185  O6651     0.70086      .   S
    C3186  O6651     0.70086      .   S
    C3185  O6652     0.69752      .   S
    C3184  O6652     0.69752      .   S
    C1933  O6653     0.92416      .   S
    C1867  O6653     0.92416      .   S
    C1933  O6654     0.92831      .   S
    C1789  O6654     0.92831      .   S
    C1563  O6655     0.92900      .   S
    C1513  O6655     0.92900      .   S
    C1563  O6656     0.92887      .   S
    C1447  O6656     0.92887      .   S
    C1945  O6657     0.92689      .   S
    C1825  O6657     0.92689      .   S
    C1945  O6658     0.92791  1_565   S
    C1903  O6658     0.92791      .   S
    C4218  O6659     0.70354      .   S
    C4219  O6659     0.70354      .   S
    C4051  O6660     0.70014      .   S
    C4052  O6660     0.70014      .   S
    C4051  O6661     0.70367      .   S
    C4050  O6661     0.70367      .   S
    C4240  O6662     0.70370      .   S
    C4245  O6662     0.70370      .   S
    C4507  O6663     0.69851      .   S
    C4508  O6663     0.69851      .   S
    C4507  O6664     0.70265      .   S
    C4506  O6664     0.70265      .   S
    C4054  O6665     0.54097      .   S
    C4066  O6665     0.54097      .   S
    C4054  O6666     0.74138      .   S
    C4050  O6666     0.74138      .   S
    C1947  O6667     0.92417  1_545   S
    C1897  O6667     0.92417      .   S
    C1947  O6668     0.92291      .   S
    C1831  O6668     0.92291      .   S
    C4434  O6669     0.70372      .   S
    C4435  O6669     0.70372      .   S
    C1935  O6670     0.93007      .   S
    C1795  O6670     0.93007      .   S
    C1935  O6671     0.92937      .   S
    C1861  O6671     0.92937      .   S
    C2814  O6672     0.54056      .   S
    C2800  O6672     0.54056      .   S
    C4065  O6673     0.54024      .   S
    C4052  O6673     0.54024      .   S
    C2778  O6674     0.70339      .   S
    C2779  O6674     0.70339      .   S
    C1484  O6675     0.63506      .   S
    C1483  O6675     0.63506      .   S
    C1484  O6676     0.74056      .   S
    C1485  O6676     0.74056      .   S
    C2970  O6677     0.70534      .   S
    C2971  O6677     0.70534      .   S
    C1406  O6678     0.63489      .   S
    C1405  O6678     0.63489      .   S
    C1406  O6679     0.74101      .   S
    C1407  O6679     0.74101      .   S
    C3475  O6680     0.69899      .   S
    C3476  O6680     0.69899      .   S
    C3475  O6681     0.70422      .   S
    C3474  O6681     0.70422      .   S
    C3161  O6682     0.70045      .   S
    C3162  O6682     0.70045      .   S
    C3161  O6683     0.69651      .   S
    C3160  O6683     0.69651      .   S
    C4425  O6684     0.54072      .   S
    C4412  O6684     0.54072      .   S
    C4216  O6685     0.70568      .   S
    C4221  O6685     0.70568      .   S
    C4531  O6686     0.69798      .   S
    C4532  O6686     0.69798      .   S
    C4531  O6687     0.70332      .   S
    C4530  O6687     0.70332      .   S
    C3478  O6688     0.54080      .   S
    C3490  O6688     0.54080      .   S
    C3478  O6689     0.74158      .   S
    C3474  O6689     0.74158      .   S
    C2968  O6690     0.70369      .   S
    C2973  O6690     0.70369      .   S
    C1442  O6691     0.63539      .   S
    C1441  O6691     0.63539      .   S
    C1442  O6692     0.74135      .   S
    C1443  O6692     0.74135      .   S
    C4432  O6693     0.70350      .   S
    C4437  O6693     0.70350      .   S
    C4411  O6694     0.70014      .   S
    C4412  O6694     0.70014      .   S
    C4411  O6695     0.70402      .   S
    C4410  O6695     0.70402      .   S
    C1514  O6696     0.63566      .   S
    C1513  O6696     0.63566      .   S
    C1514  O6697     0.74072      .   S
    C1515  O6697     0.74072      .   S
    C1412  O6698     0.63477      .   S
    C1411  O6698     0.63477      .   S
    C1412  O6699     0.73959      .   S
    C1413  O6699     0.73959      .   S
    C1520  O6700     0.63537      .   S
    C1519  O6700     0.63537      .   S
    C1520  O6701     0.74063      .   S
    C1521  O6701     0.74063      .   S
    C4025  O6702     0.70032      .   S
    C4026  O6702     0.70032      .   S
    C4025  O6703     0.69603      .   S
    C4024  O6703     0.69603      .   S
    C3489  O6704     0.54058      .   S
    C3476  O6704     0.54058      .   S
    C1478  O6705     0.63492      .   S
    C1477  O6705     0.63492      .   S
    C1478  O6706     0.73998      .   S
    C1479  O6706     0.73998      .   S
    C4545  O6707     0.54037      .   S
    C4532  O6707     0.54037      .   S
    C3462  O6708     0.54079      .   S
    C3448  O6708     0.54079      .   S
    C2802  O6709     0.70456      .   S
    C2803  O6709     0.70456      .   S
    C3450  O6710     0.70431      .   S
    C3451  O6710     0.70431      .   S
    C3198  O6711     0.53998      .   S
    C3184  O6711     0.53998      .   S
    C1868  O6712     0.63494      .   S
    C1867  O6712     0.63494      .   S
    C1868  O6713     0.73913      .   S
    C1869  O6713     0.73913      .   S
    C1448  O6714     0.63525      .   S
    C1447  O6714     0.63525      .   S
    C1448  O6715     0.74111      .   S
    C1449  O6715     0.74111      .   S
    C2776  O6716     0.70346      .   S
    C2781  O6716     0.70346      .   S
    C3006  O6717     0.54031      .   S
    C2992  O6717     0.54031      .   S
    C4534  O6718     0.54088      .   S
    C4546  O6718     0.54088      .   S
    C4534  O6719     0.74161      .   S
    C4530  O6719     0.74161      .   S
    C1790  O6720     0.63518      .   S
    C1789  O6720     0.63518      .   S
    C1790  O6721     0.74138      .   S
    C1791  O6721     0.74138      .   S
    C1582  O6722     0.70163      .   S
    C1485  O6722     0.70163      .   S
    C1582  O6723     0.70320      .   S
    C1443  O6723     0.70320      .   S
    C1898  O6724     0.63528      .   S
    C1897  O6724     0.63528      .   S
    C1898  O6725     0.73964      .   S
    C1899  O6725     0.73964      .   S
    C1564  O6726     0.70221      .   S
    C1407  O6726     0.70221      .   S
    C1564  O6727     0.70270      .   S
    C1515  O6727     0.70270      .   S
    C2994  O6728     0.70446      .   S
    C2995  O6728     0.70446      .   S
    C1826  O6729     0.63512      .   S
    C1825  O6729     0.63512      .   S
    C1826  O6730     0.74030      .   S
    C1827  O6730     0.74030      .   S
    C1832  O6731     0.63471      .   S
    C1831  O6731     0.63471      .   S
    C1832  O6732     0.73884      .   S
    C1833  O6732     0.73884      .   S
    C4510  O6733     0.54287      .   S
    C4522  O6733     0.54287      .   S
    C4510  O6734     0.73858      .   S
    C4506  O6734     0.73858      .   S
    C1567  O6735     0.70184      .   S
    C1413  O6735     0.70184      .   S
    C1567  O6736     0.70291      .   S
    C1521  O6736     0.70291      .   S
    C1904  O6737     0.63519      .   S
    C1903  O6737     0.63519      .   S
    C1904  O6738     0.74053      .   S
    C1905  O6738     0.74053      .   S
    C1585  O6739     0.70214      .   S
    C1479  O6739     0.70214      .   S
    C1585  O6740     0.70297      .   S
    C1449  O6740     0.70297      .   S
    C3186  O6741     0.70416      .   S
    C3187  O6741     0.70416      .   S
    C1862  O6742     0.63513      .   S
    C1861  O6742     0.63513      .   S
    C1862  O6743     0.74126      .   S
    C1863  O6743     0.74126      .   S
    C1796  O6744     0.63543      .   S
    C1795  O6744     0.63543      .   S
    C1796  O6745     0.74123      .   S
    C1797  O6745     0.74123      .   S
    C1966  O6746     0.70171      .   S
    C1869  O6746     0.70171      .   S
    C1966  O6747     0.70282      .   S
    C1827  O6747     0.70282      .   S
    C1948  O6748     0.70355      .   S
    C1791  O6748     0.70355      .   S
    C1948  O6749     0.70202      .   S
    C1899  O6749     0.70202      .   S
    C4414  O6750     0.74223      .   S
    C4410  O6750     0.74223      .   S
    C4414  O6751     0.54035      .   S
    C4426  O6751     0.54035      .   S
    C1969  O6752     0.70120      .   S
    C1833  O6752     0.70120      .   S
    C1969  O6753     0.70320      .   S
    C1863  O6753     0.70320      .   S
    C2800  O6754     0.70296      .   S
    C2805  O6754     0.70296      .   S
    C1951  O6755     0.70173      .   S
    C1905  O6755     0.70173      .   S
    C1951  O6756     0.70221      .   S
    C1797  O6756     0.70221      .   S
    C3162  O6757     0.70483      .   S
    C3163  O6757     0.70483      .   S
    C3174  O6758     0.54042      .   S
    C3160  O6758     0.54042      .   S
    C4026  O6759     0.70493      .   S
    C4027  O6759     0.70493      .   S
    C4508  O6760     0.70207      .   S
    C4509  O6760     0.70207      .   S
    C3448  O6761     0.70281      .   S
    C3453  O6761     0.70281      .   S
    C4038  O6762     0.54048      .   S
    C4024  O6762     0.54048      .   S
    C2992  O6763     0.70321      .   S
    C2997  O6763     0.70321      .   S
    C4052  O6764     0.70524      .   S
    C4053  O6764     0.70524      .   S
    C4050  O6765     0.69986      .   S
    C4049  O6765     0.69986      .   S
    C3184  O6766     0.70345      .   S
    C3189  O6766     0.70345      .   S
    C535   O6767     0.54007      .   S
    C532   O6767     0.54007      .   S
    C3476  O6768     0.70281      .   S
    C3477  O6768     0.70281      .   S
    C4412  O6769     0.70335      .   S
    C4413  O6769     0.70335      .   S
    C4532  O6770     0.70337      .   S
    C4533  O6770     0.70337      .   S
    C3474  O6771     0.70119      .   S
    C3473  O6771     0.70119      .   S
    C3160  O6772     0.70274      .   S
    C3165  O6772     0.70274      .   S
    C1485  O6773     0.70160      .   S
    C1486  O6773     0.70160      .   S
    C4530  O6774     0.70083      .   S
    C4529  O6774     0.70083      .   S
    C4024  O6775     0.70306      .   S
    C4029  O6775     0.70306      .   S
    C613   O6776     0.53948      .   S
    C610   O6776     0.53948      .   S
    C4506  O6777     0.70109      .   S
    C4505  O6777     0.70109      .   S
    C1443  O6778     0.70385      .   S
    C1444  O6778     0.70385      .   S
    C1407  O6779     0.70281      .   S
    C1408  O6779     0.70281      .   S
    C517   O6780     0.53973      .   S
    C515   O6780     0.53973      .   S
    C1515  O6781     0.70274      .   S
    C1516  O6781     0.70274      .   S
    C4410  O6782     0.70102      .   S
    C4409  O6782     0.70102      .   S
    C1413  O6783     0.70188      .   S
    C1414  O6783     0.70188      .   S
    C1521  O6784     0.70292      .   S
    C1522  O6784     0.70292      .   S
    C1479  O6785     0.70137      .   S
    C1480  O6785     0.70137      .   S
    C1449  O6786     0.70365      .   S
    C1450  O6786     0.70365      .   S
    C1869  O6787     0.70066      .   S
    C1870  O6787     0.70066      .   S
    C543   O6788     0.54088      .   S
    C541   O6788     0.54088      .   S
    C1791  O6789     0.70343      .   S
    C1792  O6789     0.70343      .   S
    C1899  O6790     0.70120      .   S
    C1900  O6790     0.70120      .   S
    C1827  O6791     0.70334      .   S
    C1828  O6791     0.70334      .   S
    C1833  O6792     0.70029      .   S
    C1834  O6792     0.70029      .   S
    C223   O6793     0.53983      .   S
    C220   O6793     0.53983      .   S
    C301   O6794     0.53987      .   S
    C298   O6794     0.53987      .   S
    C4243  O6795     0.54063      .   S
    C4256  O6795     0.54063      .   S
    C4243  O6796     0.69915      .   S
    C4244  O6796     0.69915      .   S
    C1863  O6797     0.70465      .   S
    C1864  O6797     0.70465      .   S
    C1905  O6798     0.70219      .   S
    C1906  O6798     0.70219      .   S
    C327   O6799     0.54018      .   S
    C324   O6799     0.54018      .   S
    C431   O6800     0.54000      .   S
    C428   O6800     0.54000      .   S
    C1797  O6801     0.70318      .   S
    C1798  O6801     0.70318      .   S
    C231   O6802     0.53974      .   S
    C229   O6802     0.53974      .   S
    C509   O6803     0.54000      .   S
    C506   O6803     0.54000      .   S
    C309   O6804     0.53974      .   S
    C307   O6804     0.53974      .   S
    C621   O6805     0.53981      .   S
    C619   O6805     0.53981      .   S
    C4219  O6806     0.54066      .   S
    C4232  O6806     0.54066      .   S
    C4219  O6807     0.69925      .   S
    C4220  O6807     0.69925      .   S
    C4245  O6808     0.70324      .   S
    C4244  O6808     0.70324      .   S
    C4245  O6809     0.74349      .   S
    C533   O6809     0.74349      .   S
    C4435  O6810     0.54055      .   S
    C4448  O6810     0.54055      .   S
    C4435  O6811     0.69802      .   S
    C4436  O6811     0.69802      .   S
    C439   O6812     0.53996      .   S
    C437   O6812     0.53996      .   S
    C3451  O6813     0.54026      .   S
    C3464  O6813     0.54026      .   S
    C3451  O6814     0.69933      .   S
    C3452  O6814     0.69933      .   S
    C2779  O6815     0.54073      .   S
    C2792  O6815     0.54073      .   S
    C2779  O6816     0.69871      .   S
    C2780  O6816     0.69871      .   S
    C2995  O6817     0.54042      .   S
    C3008  O6817     0.54042      .   S
    C2995  O6818     0.69973      .   S
    C2996  O6818     0.69973      .   S
    C4437  O6819     0.70300      .   S
    C4436  O6819     0.70300      .   S
    C4437  O6820     0.74216      .   S
    C514   O6820     0.74216      .   S
    C4221  O6821     0.70498      .   S
    C4220  O6821     0.70498      .   S
    C4221  O6822     0.70643      .   S
    C611   O6822     0.70643      .   S
    C2803  O6823     0.54068      .   S
    C2816  O6823     0.54068      .   S
    C2803  O6824     0.70056      .   S
    C2804  O6824     0.70056      .   S
    C335   O6825     0.54020      .   S
    C333   O6825     0.54020      .   S
    C2971  O6826     0.54047      .   S
    C2984  O6826     0.54047      .   S
    C2971  O6827     0.70167      .   S
    C2972  O6827     0.70167      .   S
    C3187  O6828     0.54041      .   S
    C3200  O6828     0.54041      .   S
    C3187  O6829     0.69969      .   S
    C3188  O6829     0.69969      .   S
    C405   O6830     0.54039      .   S
    C402   O6830     0.54039      .   S
    C2781  O6831     0.70325      .   S
    C2780  O6831     0.70325      .   S
    C2781  O6832     0.74374      .   S
    C325   O6832     0.74374      .   S
    C3163  O6833     0.54044      .   S
    C3176  O6833     0.54044      .   S
    C3163  O6834     0.70073      .   S
    C3164  O6834     0.70073      .   S
    C2973  O6835     0.70282      .   S
    C2972  O6835     0.70282      .   S
    C2973  O6836     0.74403      .   S
    C221   O6836     0.74403      .   S
    C532   O6837     0.69297      .   S
    C533   O6837     0.69297      .   S
    C532   O6838     0.67199      .   S
    C531   O6838     0.67199      .   S
    C4027  O6839     0.54025      .   S
    C4040  O6839     0.54025      .   S
    C4027  O6840     0.70114      .   S
    C4028  O6840     0.70114      .   S
    C3453  O6841     0.70261      .   S
    C3452  O6841     0.70261      .   S
    C3453  O6842     0.74272      .   S
    C410   O6842     0.74272      .   S
    C2997  O6843     0.70292      .   S
    C2996  O6843     0.70292      .   S
    C2997  O6844     0.74218      .   S
    C299   O6844     0.74218      .   S
    C2805  O6845     0.70290      .   S
    C2804  O6845     0.70290      .   S
    C2805  O6846     0.74359      .   S
    C403   O6846     0.74359      .   S
    C3189  O6847     0.70321      .   S
    C3188  O6847     0.70321      .   S
    C3189  O6848     0.74296      .   S
    C228   O6848     0.74296      .   S
    C413   O6849     0.54038      .   S
    C411   O6849     0.54038      .   S
    C4244  O6850     0.54052      .   S
    C4257  O6850     0.54052      .   S
    C610   O6851     0.69456      .   S
    C611   O6851     0.69456      .   S
    C610   O6852     0.67190      .   S
    C609   O6852     0.67190      .   S
    C515   O6853     0.69155      .   S
    C514   O6853     0.69155      .   S
    C515   O6854     0.67203      .   S
    C511   O6854     0.67203      .   S
    C3165  O6855     0.70285      .   S
    C3164  O6855     0.70285      .   S
    C3165  O6856     0.74247      .   S
    C306   O6856     0.74247      .   S
    C4049  O6857     0.54181      .   S
    C4063  O6857     0.54181      .   S
    C4049  O6858     0.69715      .   S
    C4048  O6858     0.69715      .   S
    C4053  O6859     0.70545      .   S
    C4048  O6859     0.70545      .   S
    C4053  O6860     0.70650      .   S
    C429   O6860     0.70650      .   S
    C4029  O6861     0.70298      .   S
    C4028  O6861     0.70298      .   S
    C4029  O6862     0.74148      .   S
    C507   O6862     0.74148      .   S
    C220   O6863     0.69110      .   S
    C221   O6863     0.69110      .   S
    C220   O6864     0.67041      .   S
    C219   O6864     0.67041      .   S
    C298   O6865     0.69170      .   S
    C299   O6865     0.69170      .   S
    C298   O6866     0.67099      .   S
    C297   O6866     0.67099      .   S
    C4220  O6867     0.54064      .   S
    C4233  O6867     0.54064      .   S
    C4436  O6868     0.54032      .   S
    C4449  O6868     0.54032      .   S
    C324   O6869     0.69391      .   S
    C325   O6869     0.69391      .   S
    C324   O6870     0.67250      .   S
    C323   O6870     0.67250      .   S
    C533   O6871     0.69401      .   S
    C534   O6871     0.69401      .   S
    C541   O6872     0.69034      .   S
    C540   O6872     0.69034      .   S
    C541   O6873     0.67281      .   S
    C537   O6873     0.67281      .   S
    C3477  O6874     0.70316      .   S
    C3472  O6874     0.70316      .   S
    C3477  O6875     0.74320      .   S
    C332   O6875     0.74320      .   S
    C229   O6876     0.69180      .   S
    C228   O6876     0.69180      .   S
    C229   O6877     0.67218      .   S
    C225   O6877     0.67218      .   S
    C428   O6878     0.69648      .   S
    C429   O6878     0.69648      .   S
    C428   O6879     0.67408      .   S
    C427   O6879     0.67408      .   S
    C4509  O6880     0.73784      .   S
    C540   O6880     0.73784      .   S
    C4509  O6881     0.70161      .   S
    C4504  O6881     0.70161      .   S
    C307   O6882     0.69040      .   S
    C306   O6882     0.69040      .   S
    C307   O6883     0.67111      .   S
    C303   O6883     0.67111      .   S
    C3452  O6884     0.54092      .   S
    C3465  O6884     0.54092      .   S
    C3473  O6885     0.54162      .   S
    C3487  O6885     0.54162      .   S
    C3473  O6886     0.69857      .   S
    C3472  O6886     0.69857      .   S
    C506   O6887     0.69097      .   S
    C507   O6887     0.69097      .   S
    C506   O6888     0.67030      .   S
    C505   O6888     0.67030      .   S
    C4533  O6889     0.74330      .   S
    C618   O6889     0.74330      .   S
    C4533  O6890     0.70338      .   S
    C4528  O6890     0.70338      .   S
    C2780  O6891     0.54081      .   S
    C2793  O6891     0.54081      .   S
    C2996  O6892     0.54069      .   S
    C3009  O6892     0.54069      .   S
    C1486  O6893     0.54146      .   S
    C1487  O6893     0.54146      .   S
    C1486  O6894     0.70193      .   S
    C1584  O6894     0.70193      .   S
    C4413  O6895     0.74356      .   S
    C436   O6895     0.74356      .   S
    C4413  O6896     0.70329      .   S
    C4408  O6896     0.70329      .   S
    C4529  O6897     0.54188      .   S
    C4543  O6897     0.54188      .   S
    C4529  O6898     0.69892      .   S
    C4528  O6898     0.69892      .   S
    C619   O6899     0.69331      .   S
    C618   O6899     0.69331      .   S
    C619   O6900     0.67280      .   S
    C615   O6900     0.67280      .   S
    C1444  O6901     0.54173      .   S
    C1445  O6901     0.54173      .   S
    C1444  O6902     0.70316      .   S
    C1584  O6902     0.70316      .   S
    C2804  O6903     0.54096      .   S
    C2817  O6903     0.54096      .   S
    C611   O6904     0.69617      .   S
    C612   O6904     0.69617      .   S
    C3188  O6905     0.54071      .   S
    C3201  O6905     0.54071      .   S
    C437   O6906     0.69403      .   S
    C436   O6906     0.69403      .   S
    C437   O6907     0.67466      .   S
    C433   O6907     0.67466      .   S
    C514   O6908     0.69353      .   S
    C513   O6908     0.69353      .   S
    C2972  O6909     0.54068      .   S
    C2985  O6909     0.54068      .   S
    C3164  O6910     0.54095      .   S
    C3177  O6910     0.54095      .   S
    C1408  O6911     0.54143      .   S
    C1409  O6911     0.54143      .   S
    C1408  O6912     0.70255      .   S
    C1566  O6912     0.70255      .   S
    C1516  O6913     0.54159      .   S
    C1517  O6913     0.54159      .   S
    C1516  O6914     0.70234      .   S
    C1566  O6914     0.70234      .   S
    C1870  O6915     0.54185      .   S
    C1871  O6915     0.54185      .   S
    C1870  O6916     0.70132      .   S
    C1968  O6916     0.70132      .   S
    C402   O6917     0.69289      .   S
    C403   O6917     0.69289      .   S
    C402   O6918     0.67141      .   S
    C401   O6918     0.67141      .   S
    C1522  O6919     0.54178      .   S
    C1523  O6919     0.54178      .   S
    C1522  O6920     0.70232      .   S
    C1569  O6920     0.70232      .   S
    C4028  O6921     0.54088      .   S
    C4041  O6921     0.54088      .   S
    C1414  O6922     0.54180      .   S
    C1415  O6922     0.54180      .   S
    C1414  O6923     0.70130      .   S
    C1569  O6923     0.70130      .   S
    C1900  O6924     0.54182      .   S
    C1901  O6924     0.54182      .   S
    C1900  O6925     0.70079      .   S
    C1950  O6925     0.70079      .   S
    C1792  O6926     0.54177      .   S
    C1793  O6926     0.54177      .   S
    C1792  O6927     0.70231      .   S
    C1950  O6927     0.70231      .   S
    C1834  O6928     0.54176      .   S
    C1835  O6928     0.54176      .   S
    C1834  O6929     0.70094      .   S
    C1971  O6929     0.70094      .   S
    C1828  O6930     0.54179      .   S
    C1829  O6930     0.54179      .   S
    C1828  O6931     0.70228      .   S
    C1968  O6931     0.70228      .   S
    C1480  O6932     0.54168      .   S
    C1481  O6932     0.54168      .   S
    C1480  O6933     0.70099      .   S
    C1587  O6933     0.70099      .   S
    C4409  O6934     0.69766      .   S
    C4408  O6934     0.69766      .   S
    C4409  O6935     0.54214      .   S
    C4423  O6935     0.54214      .   S
    C1450  O6936     0.54152      .   S
    C1451  O6936     0.54152      .   S
    C1450  O6937     0.70252      .   S
    C1587  O6937     0.70252      .   S
    C325   O6938     0.69367      .   S
    C326   O6938     0.69367      .   S
    C333   O6939     0.69331      .   S
    C332   O6939     0.69331      .   S
    C333   O6940     0.67329      .   S
    C329   O6940     0.67329      .   S
    C1864  O6941     0.54173      .   S
    C1865  O6941     0.54173      .   S
    C1864  O6942     0.70329      .   S
    C1971  O6942     0.70329      .   S
    C411   O6943     0.69270      .   S
    C410   O6943     0.69270      .   S
    C411   O6944     0.67246      .   S
    C407   O6944     0.67246      .   S
    C221   O6945     0.69583      .   S
    C222   O6945     0.69583      .   S
    C299   O6946     0.69441      .   S
    C300   O6946     0.69441      .   S
    C4505  O6947     0.69976      .   S
    C4504  O6947     0.69976      .   S
    C4505  O6948     0.54126      .   S
    C4519  O6948     0.54126      .   S
    C1906  O6949     0.54161      .   S
    C1907  O6949     0.54161      .   S
    C1906  O6950     0.70240      .   S
    C1953  O6950     0.70240      .   S
    C410   O6951     0.69353      .   S
    C409   O6951     0.69353      .   S
    C1798  O6952     0.54178      .   S
    C1799  O6952     0.54178      .   S
    C1798  O6953     0.70350      .   S
    C1953  O6953     0.70350      .   S
    C403   O6954     0.69543      .   S
    C404   O6954     0.69543      .   S
    C228   O6955     0.69376      .   S
    C227   O6955     0.69376      .   S
    C4048  O6956     0.54003      .   S
    C4062  O6956     0.54003      .   S
    C429   O6957     0.69393      .   S
    C430   O6957     0.69393      .   S
    C306   O6958     0.69491      .   S
    C305   O6958     0.69491      .   S
    C507   O6959     0.69522      .   S
    C508   O6959     0.69522      .   S
    C531   O6960     0.97047      .   S
    C529   O6960     0.97047      .   S
    C531   O6961     0.65631      .   S
    C530   O6961     0.65631      .   S
    C540   O6962     0.69158      .   S
    C539   O6962     0.69158      .   S
    C529   O6963     0.98208      .   S
    C537   O6963     0.98208      .   S
    C3472  O6964     0.54041      .   S
    C3486  O6964     0.54041      .   S
    C332   O6965     0.69267      .   S
    C331   O6965     0.69267      .   S
    C618   O6966     0.69295      .   S
    C617   O6966     0.69295      .   S
    C436   O6967     0.69205      .   S
    C435   O6967     0.69205      .   S
    C4528  O6968     0.54021      .   S
    C4542  O6968     0.54021      .   S
    C503   O6969     0.97887      .   S
    C511   O6969     0.97887      .   S
    C503   O6970     0.96677      .   S
    C505   O6970     0.96677      .   S
    C511   O6971     0.65884      .   S
    C512   O6971     0.65884      .   S
    C1584  O6972     0.74247      .   S
    C2499  O6972     0.74247      .   S
    C609   O6973     0.97127      .   S
    C607   O6973     0.97127      .   S
    C609   O6974     0.65659      .   S
    C608   O6974     0.65659      .   S
    C295   O6975     0.96712      .   S
    C297   O6975     0.96712      .   S
    C295   O6976     0.97824      .   S
    C303   O6976     0.97824      .   S
    C607   O6977     0.98402      .   S
    C615   O6977     0.98402      .   S
    C607   O6978     1.03370      .   S
    C623   O6978     1.03370      .   S
    C607   O6979     1.03297      .   S
    C622   O6979     1.03297      .   S
    C217   O6980     0.96790      .   S
    C219   O6980     0.96790      .   S
    C217   O6981     0.98043      .   S
    C225   O6981     0.98043      .   S
    C297   O6982     0.65599      .   S
    C296   O6982     0.65599      .   S
    C4408  O6983     0.54058      .   S
    C4422  O6983     0.54058      .   S
    C219   O6984     0.65708      .   S
    C218   O6984     0.65708      .   S
    C1968  O6985     0.74073      .   S
    C2523  O6985     0.74073      .   S
    C1950  O6986     0.74084      .   S
    C3771  O6986     0.74084      .   S
    C1566  O6987     0.74219      .   S
    C3747  O6987     0.74219      .   S
    C537   O6988     0.66008      .   S
    C538   O6988     0.66008      .   S
    C425   O6989     0.97805      .   S
    C427   O6989     0.97805      .   S
    C425   O6990     0.98942      .   S
    C433   O6990     0.98942      .   S
    C425   O6991     1.02892      .   S
    C441   O6991     1.02892      .   S
    C425   O6992     1.03105      .   S
    C440   O6992     1.03105      .   S
    C1569  O6993     0.74150      .   S
    C3843  O6993     0.74150      .   S
    C1971  O6994     0.74070      .   S
    C2427  O6994     0.74070      .   S
    C505   O6995     0.65674      .   S
    C504   O6995     0.65674      .   S
    C225   O6996     0.65880      .   S
    C226   O6996     0.65880      .   S
    C303   O6997     0.65931      .   S
    C304   O6997     0.65931      .   S
    C427   O6998     0.65665      .   S
    C426   O6998     0.65665      .   S
    C1587  O6999     0.74123      .   S
    C2403  O6999     0.74123      .   S
    C4504  O7000     0.54122      .   S
    C4518  O7000     0.54122      .   S
    C323   O7001     0.97136      .   S
    C321   O7001     0.97136      .   S
    C323   O7002     0.65616      .   S
    C322   O7002     0.65616      .   S
    C615   O7003     0.65916      .   S
    C616   O7003     0.65916      .   S
    C1953  O7004     0.74287      .   S
    C3867  O7004     0.74287      .   S
    C433   O7005     0.65988      .   S
    C434   O7005     0.65988      .   S
    C407   O7006     0.98195      .   S
    C399   O7006     0.98195      .   S
    C407   O7007     0.65933      .   S
    C408   O7007     0.65933      .   S
    C321   O7008     0.98393      .   S
    C329   O7008     0.98393      .   S
    C321   O7009     1.02643      .   S
    C337   O7009     1.02643      .   S
    C401   O7010     0.97121      .   S
    C399   O7010     0.97121      .   S
    C401   O7011     0.65716      .   S
    C400   O7011     0.65716      .   S
    C329   O7012     0.65928      .   S
    C330   O7012     0.65928      .   S
    C2509  O7013     0.54130      .   S
    C2498  O7013     0.54130      .   S
    C2437  O7014     0.54163      .   S
    C2426  O7014     0.54163      .   S
    C409   O7015     0.54043      .   S
    C412   O7015     0.54043      .   S
    C409   O7016     0.67319      .   S
    C408   O7016     0.67319      .   S
    C3781  O7017     0.54167      .   S
    C3770  O7017     0.54167      .   S
    C2533  O7018     0.54164      .   S
    C2522  O7018     0.54164      .   S
    C534   O7019     0.67362      .   S
    C530   O7019     0.67362      .   S
    C534   O7020     0.54012      .   S
    C536   O7020     0.54012      .   S
    C399   O7021     1.01083      .   S
    C415   O7021     1.01083      .   S
    C513   O7022     0.67320      .   S
    C512   O7022     0.67320      .   S
    C513   O7023     0.53996      .   S
    C516   O7023     0.53996      .   S
    C612   O7024     0.67382      .   S
    C608   O7024     0.67382      .   S
    C612   O7025     0.54024      .   S
    C614   O7025     0.54024      .   S
    C3854  O7026     0.54145      .   S
    C3844  O7026     0.54145      .   S
    C404   O7027     0.67443      .   S
    C400   O7027     0.67443      .   S
    C404   O7028     0.54045      .   S
    C406   O7028     0.54045      .   S
    C326   O7029     0.67321      .   S
    C322   O7029     0.67321      .   S
    C326   O7030     0.54022      .   S
    C328   O7030     0.54022      .   S
    C2414  O7031     0.54143      .   S
    C2404  O7031     0.54143      .   S
    C3758  O7032     0.54191      .   S
    C3748  O7032     0.54191      .   S
    C300   O7033     0.67457      .   S
    C296   O7033     0.67457      .   S
    C300   O7034     0.54051      .   S
    C302   O7034     0.54051      .   S
    C222   O7035     0.67578      .   S
    C218   O7035     0.67578      .   S
    C222   O7036     0.54053      .   S
    C224   O7036     0.54053      .   S
    C530   O7037     0.97391      .   S
    C527   O7037     0.97391      .   S
    C227   O7038     0.67402      .   S
    C226   O7038     0.67402      .   S
    C227   O7039     0.54008      .   S
    C230   O7039     0.54008      .   S
    C3878  O7040     0.54146      .   S
    C3868  O7040     0.54146      .   S
    C408   O7041     0.98353      .   S
    C398   O7041     0.98353      .   S
    C430   O7042     0.67139      .   S
    C426   O7042     0.67139      .   S
    C430   O7043     0.53890      .   S
    C432   O7043     0.53890      .   S
    C305   O7044     0.67502      .   S
    C304   O7044     0.67502      .   S
    C305   O7045     0.54039      .   S
    C308   O7045     0.54039      .   S
    C512   O7046     0.98355      .   S
    C502   O7046     0.98355      .   S
    C508   O7047     0.67537      .   S
    C504   O7047     0.67537      .   S
    C508   O7048     0.54064      .   S
    C510   O7048     0.54064      .   S
    C519   O7049     1.02958      .   S
    C502   O7049     1.02958      .   S
    C608   O7050     0.97531      .   S
    C605   O7050     0.97531      .   S
    C331   O7051     0.67271      .   S
    C330   O7051     0.67271      .   S
    C331   O7052     0.54010      .   S
    C334   O7052     0.54010      .   S
    C233   O7053     1.02965      .   S
    C216   O7053     1.02965      .   S
    C296   O7054     0.97453      .   S
    C293   O7054     0.97453      .   S
    C311   O7055     1.02427      .   S
    C294   O7055     1.02427      .   S
    C218   O7056     0.98078      .   S
    C215   O7056     0.98078      .   S
    C545   O7057     1.03165      .   S
    C528   O7057     1.03165      .   S
    C322   O7058     0.97229      .   S
    C319   O7058     0.97229      .   S
    C226   O7059     0.98551      .   S
    C216   O7059     0.98551      .   S
    C400   O7060     0.97690      .   S
    C397   O7060     0.97690      .   S
    C617   O7061     0.67311      .   S
    C616   O7061     0.67311      .   S
    C617   O7062     0.53983      .   S
    C620   O7062     0.53983      .   S
    C435   O7063     0.67215      .   S
    C434   O7063     0.67215      .   S
    C435   O7064     0.53976      .   S
    C438   O7064     0.53976      .   S
    C539   O7065     0.67409      .   S
    C538   O7065     0.67409      .   S
    C539   O7066     0.54118      .   S
    C542   O7066     0.54118      .   S
    C304   O7067     0.99020      .   S
    C294   O7067     0.99020      .   S
    C504   O7068     0.97796      .   S
    C501   O7068     0.97796      .   S
    C426   O7069     0.96916      .   S
    C423   O7069     0.96916      .   S
    C538   O7070     0.98568      .   S
    C528   O7070     0.98568      .   S
    C2499  O7071     0.70270      .   S
    C2498  O7071     0.70270      .   S
    C2499  O7072     0.70239      .   S
    C2500  O7072     0.70239      .   S
    C330   O7073     0.98297      .   S
    C320   O7073     0.98297      .   S
    C616   O7074     0.98339      .   S
    C606   O7074     0.98339      .   S
    C2498  O7075     0.69790      .   S
    C2497  O7075     0.69790      .   S
    C434   O7076     0.98350      .   S
    C424   O7076     0.98350      .   S
    C3771  O7077     0.70202      .   S
    C3770  O7077     0.70202      .   S
    C3771  O7078     0.70188      .   S
    C3772  O7078     0.70188      .   S
    C2426  O7079     0.70288      .   S
    C2427  O7079     0.70288      .   S
    C2426  O7080     0.69742      .   S
    C2425  O7080     0.69742      .   S
    C2523  O7081     0.70217      .   S
    C2522  O7081     0.70217      .   S
    C2523  O7082     0.70155      .   S
    C2524  O7082     0.70155      .   S
    C2427  O7083     0.70126      .   S
    C2428  O7083     0.70126      .   S
    C3770  O7084     0.69744      .   S
    C3769  O7084     0.69744      .   S
    C2522  O7085     0.69751      .   S
    C2521  O7085     0.69751      .   S
    C3747  O7086     0.70232      .   S
    C3748  O7086     0.70232      .   S
    C3747  O7087     0.70207      .   S
    C3746  O7087     0.70207      .   S
    C3843  O7088     0.70194      .   S
    C3844  O7088     0.70194      .   S
    C3843  O7089     0.70232      .   S
    C3842  O7089     0.70232      .   S
    C2403  O7090     0.70137      .   S
    C2404  O7090     0.70137      .   S
    C2403  O7091     0.70219      .   S
    C2402  O7091     0.70219      .   S
    C3844  O7092     0.69872      .   S
    C3845  O7092     0.69872      .   S
    C3867  O7093     0.70204      .   S
    C3868  O7093     0.70204      .   S
    C3867  O7094     0.70247      .   S
    C3866  O7094     0.70247      .   S
    C3748  O7095     0.69893      .   S
    C3749  O7095     0.69893      .   S
    C2404  O7096     0.69882      .   S
    C2405  O7096     0.69882      .   S
    C3868  O7097     0.69917      .   S
    C3869  O7097     0.69917      .   S
    C544   O7098     1.03347      .   S
    C528   O7098     1.03347      .   S
    C398   O7099     1.00550      .   S
    C414   O7099     1.00550      .   S
    C398   O7100     0.97336      .   S
    C390   O7100     0.97336      .   S
    C518   O7101     1.02901      .   S
    C502   O7101     1.02901      .   S
    C232   O7102     1.02775      .   S
    C216   O7102     1.02775      .   S
    C310   O7103     1.02520      .   S
    C294   O7103     1.02520      .   S
    C2500  O7104     0.54140      .   S
    C2510  O7104     0.54140      .   S
    C2500  O7105     0.69998      .   S
    C2501  O7105     0.69998      .   S
    C3757  O7106     0.54163      .   S
    C3746  O7106     0.54163      .   S
    C502   O7107     0.97063      .   S
    C494   O7107     0.97063      .   S
    C527   O7108     0.97315      .   S
    C521   O7108     0.97315      .   S
    C336   O7109     1.01995      .   S
    C320   O7109     1.01995      .   S
    C293   O7110     0.97306      .   S
    C287   O7110     0.97306      .   S
    C2497  O7111     0.54165      .   S
    C2508  O7111     0.54165      .   S
    C2497  O7112     0.70120      .   S
    C2496  O7112     0.70120      .   S
    C3853  O7113     0.54130      .   S
    C3842  O7113     0.54130      .   S
    C2436  O7114     0.54185      .   S
    C2425  O7114     0.54185      .   S
    C397   O7115     0.97642      .   S
    C391   O7115     0.97642      .   S
    C2413  O7116     0.54153      .   S
    C2402  O7116     0.54153      .   S
    C3746  O7117     0.69922      .   S
    C3745  O7117     0.69922      .   S
    C3772  O7118     0.54139      .   S
    C3782  O7118     0.54139      .   S
    C3772  O7119     0.69956      .   S
    C3773  O7119     0.69956      .   S
    C2524  O7120     0.54163      .   S
    C2534  O7120     0.54163      .   S
    C2524  O7121     0.69904      .   S
    C2525  O7121     0.69904      .   S
    C2425  O7122     0.70142      .   S
    C2424  O7122     0.70142      .   S
    C3842  O7123     0.69867      .   S
    C3841  O7123     0.69867      .   S
    C3780  O7124     0.54193      .   S
    C3769  O7124     0.54193      .   S
    C605   O7125     0.97553      .   S
    C599   O7125     0.97553      .   S
    C215   O7126     0.97966      .   S
    C209   O7126     0.97966      .   S
    C3769  O7127     0.70159      .   S
    C3768  O7127     0.70159      .   S
    C2532  O7128     0.54169      .   S
    C2521  O7128     0.54169      .   S
    C2521  O7129     0.70124      .   S
    C2520  O7129     0.70124      .   S
    C2402  O7130     0.69869      .   S
    C2401  O7130     0.69869      .   S
    C216   O7131     0.97207      .   S
    C208   O7131     0.97207      .   S
    C2428  O7132     0.54165      .   S
    C2438  O7132     0.54165      .   S
    C2428  O7133     0.69979      .   S
    C2429  O7133     0.69979      .   S
    C501   O7134     0.97726      .   S
    C495   O7134     0.97726      .   S
    C3877  O7135     0.54159      .   S
    C3866  O7135     0.54159      .   S
    C294   O7136     0.97759      .   S
    C286   O7136     0.97759      .   S
    C423   O7137     0.96899      .   S
    C417   O7137     0.96899      .   S
    C3866  O7138     0.69919      .   S
    C3865  O7138     0.69919      .   S
    C320   O7139     0.97091      .   S
    C312   O7139     0.97091      .   S
    C319   O7140     0.97200      .   S
    C313   O7140     0.97200      .   S
    C3845  O7141     0.54009      .   S
    C3855  O7141     0.54009      .   S
    C3845  O7142     0.70472      .   S
    C3840  O7142     0.70472      .   S
    C528   O7143     0.97342      .   S
    C520   O7143     0.97342      .   S
    C606   O7144     0.97107      .   S
    C598   O7144     0.97107      .   S
    C2405  O7145     0.54015      .   S
    C2415  O7145     0.54015      .   S
    C2405  O7146     0.70518      .   S
    C2400  O7146     0.70518      .   S
    C3749  O7147     0.54012      .   S
    C3759  O7147     0.54012      .   S
    C3749  O7148     0.70462      .   S
    C3744  O7148     0.70462      .   S
    C424   O7149     0.97261      .   S
    C416   O7149     0.97261      .   S
    C3869  O7150     0.54035      .   S
    C3879  O7150     0.54035      .   S
    C3869  O7151     0.70467      .   S
    C3864  O7151     0.70467      .   S
    C2501  O7152     0.70491      .   S
    C2496  O7152     0.70491      .   S
    C2501  O7153     0.54046      .   S
    C2511  O7153     0.54046      .   S
    C2496  O7154     0.74268      .   S
    C2495  O7154     0.74268      .   S
    C390   O7155     0.65702      .   S
    C391   O7155     0.65702      .   S
    C390   O7156     0.67178      .   S
    C394   O7156     0.67178      .   S
    C3773  O7157     0.70516      .   S
    C3768  O7157     0.70516      .   S
    C3773  O7158     0.54018      .   S
    C3783  O7158     0.54018      .   S
    C2525  O7159     0.70514      .   S
    C2520  O7159     0.70514      .   S
    C2525  O7160     0.54042      .   S
    C2535  O7160     0.54042      .   S
    C3841  O7161     0.70189      .   S
    C3840  O7161     0.70189      .   S
    C3841  O7162     0.54166      .   S
    C3852  O7162     0.54166      .   S
    C3745  O7163     0.70210      .   S
    C3744  O7163     0.70210      .   S
    C3745  O7164     0.54154      .   S
    C3756  O7164     0.54154      .   S
    C3768  O7165     0.74236      .   S
    C3767  O7165     0.74236      .   S
    C2520  O7166     0.74168      .   S
    C2519  O7166     0.74168      .   S
    C2424  O7167     0.70544      .   S
    C2429  O7167     0.70544      .   S
    C2424  O7168     0.74256      .   S
    C2423  O7168     0.74256      .   S
    C2401  O7169     0.70191      .   S
    C2400  O7169     0.70191      .   S
    C2401  O7170     0.54179      .   S
    C2412  O7170     0.54179      .   S
    C2429  O7171     0.54053      .   S
    C2439  O7171     0.54053      .   S
    C3840  O7172     0.74254      .   S
    C3839  O7172     0.74254      .   S
    C391   O7173     0.67392      .   S
    C392   O7173     0.67392      .   S
    C3865  O7174     0.70195      .   S
    C3864  O7174     0.70195      .   S
    C3865  O7175     0.54178      .   S
    C3876  O7175     0.54178      .   S
    C494   O7176     0.65727      .   S
    C495   O7176     0.65727      .   S
    C494   O7177     0.67120      .   S
    C498   O7177     0.67120      .   S
    C2400  O7178     0.74306      .   S
    C2399  O7178     0.74306      .   S
    C3744  O7179     0.74282      .   S
    C3743  O7179     0.74282      .   S
    C495   O7180     0.67482      .   S
    C496   O7180     0.67482      .   S
    C208   O7181     0.65730      .   S
    C209   O7181     0.65730      .   S
    C208   O7182     0.67171      .   S
    C212   O7182     0.67171      .   S
    C287   O7183     0.65721      .   S
    C286   O7183     0.65721      .   S
    C287   O7184     0.67256      .   S
    C288   O7184     0.67256      .   S
    C209   O7185     0.67535      .   S
    C210   O7185     0.67535      .   S
    C521   O7186     0.65669      .   S
    C520   O7186     0.65669      .   S
    C521   O7187     0.67350      .   S
    C522   O7187     0.67350      .   S
    C3864  O7188     0.74339      .   S
    C3863  O7188     0.74339      .   S
    C286   O7189     0.67356      .   S
    C290   O7189     0.67356      .   S
    C599   O7190     0.65641      .   S
    C598   O7190     0.65641      .   S
    C599   O7191     0.67417      .   S
    C600   O7191     0.67417      .   S
    C312   O7192     0.65625      .   S
    C313   O7192     0.65625      .   S
    C312   O7193     0.67235      .   S
    C316   O7193     0.67235      .   S
    C313   O7194     0.67331      .   S
    C314   O7194     0.67331      .   S
    C520   O7195     0.67261      .   S
    C524   O7195     0.67261      .   S
    C417   O7196     0.65660      .   S
    C416   O7196     0.65660      .   S
    C417   O7197     0.67225      .   S
    C418   O7197     0.67225      .   S
    C598   O7198     0.67146      .   S
    C602   O7198     0.67146      .   S
    C416   O7199     0.67344      .   S
    C420   O7199     0.67344      .   S
    C394   O7200     0.54040      .   S
    C396   O7200     0.54040      .   S
    C394   O7201     0.69298      .   S
    C393   O7201     0.69298      .   S
    C2495  O7202     0.54061      .   S
    C2507  O7202     0.54061      .   S
    C2495  O7203     0.67038      .   S
    C2494  O7203     0.67038      .   S
    C498   O7204     0.53977      .   S
    C500   O7204     0.53977      .   S
    C498   O7205     0.69246      .   S
    C497   O7205     0.69246      .   S
    C3850  O7206     0.54043      .   S
    C3838  O7206     0.54043      .   S
    C2410  O7207     0.54052      .   S
    C2398  O7207     0.54052      .   S
    C3767  O7208     0.54122      .   S
    C3779  O7208     0.54122      .   S
    C3767  O7209     0.67065      .   S
    C3766  O7209     0.67065      .   S
    C2519  O7210     0.54101      .   S
    C2531  O7210     0.54101      .   S
    C2519  O7211     0.67024      .   S
    C2518  O7211     0.67024      .   S
    C2435  O7212     0.54117      .   S
    C2423  O7212     0.54117      .   S
    C2423  O7213     0.66990      .   S
    C2422  O7213     0.66990      .   S
    C212   O7214     0.53993      .   S
    C214   O7214     0.53993      .   S
    C212   O7215     0.69246      .   S
    C211   O7215     0.69246      .   S
    C522   O7216     0.53999      .   S
    C525   O7216     0.53999      .   S
    C522   O7217     0.69376      .   S
    C523   O7217     0.69376      .   S
    C210   O7218     0.54025      .   S
    C213   O7218     0.54025      .   S
    C210   O7219     0.69574      .   S
    C211   O7219     0.69574      .   S
    C496   O7220     0.54051      .   S
    C499   O7220     0.54051      .   S
    C496   O7221     0.69513      .   S
    C497   O7221     0.69513      .   S
    C288   O7222     0.53998      .   S
    C291   O7222     0.53998      .   S
    C288   O7223     0.69329      .   S
    C289   O7223     0.69329      .   S
    C392   O7224     0.54032      .   S
    C395   O7224     0.54032      .   S
    C392   O7225     0.69492      .   S
    C393   O7225     0.69492      .   S
    C3754  O7226     0.54078      .   S
    C3742  O7226     0.54078      .   S
    C3839  O7227     0.67064      .   S
    C3838  O7227     0.67064      .   S
    C3839  O7228     0.54118      .   S
    C3851  O7228     0.54118      .   S
    C600   O7229     0.54010      .   S
    C603   O7229     0.54010      .   S
    C600   O7230     0.69624      .   S
    C601   O7230     0.69624      .   S
    C316   O7231     0.53998      .   S
    C318   O7231     0.53998      .   S
    C316   O7232     0.69306      .   S
    C315   O7232     0.69306      .   S
    C290   O7233     0.54011      .   S
    C292   O7233     0.54011      .   S
    C290   O7234     0.69427      .   S
    C289   O7234     0.69427      .   S
    C2399  O7235     0.67103      .   S
    C2398  O7235     0.67103      .   S
    C2399  O7236     0.54078      .   S
    C2411  O7236     0.54078      .   S
    C314   O7237     0.53983      .   S
    C317   O7237     0.53983      .   S
    C314   O7238     0.69388      .   S
    C315   O7238     0.69388      .   S
    C3874  O7239     0.54084      .   S
    C3862  O7239     0.54084      .   S
    C3743  O7240     0.67140      .   S
    C3742  O7240     0.67140      .   S
    C3743  O7241     0.54089      .   S
    C3755  O7241     0.54089      .   S
    C418   O7242     0.53913      .   S
    C421   O7242     0.53913      .   S
    C418   O7243     0.69269      .   S
    C419   O7243     0.69269      .   S
    C524   O7244     0.53994      .   S
    C526   O7244     0.53994      .   S
    C524   O7245     0.69394      .   S
    C523   O7245     0.69394      .   S
    C602   O7246     0.53934      .   S
    C604   O7246     0.53934      .   S
    C602   O7247     0.69467      .   S
    C601   O7247     0.69467      .   S
    C3863  O7248     0.67118      .   S
    C3862  O7248     0.67118      .   S
    C3863  O7249     0.54081      .   S
    C3875  O7249     0.54081      .   S
    C420   O7250     0.53995      .   S
    C422   O7250     0.53995      .   S
    C420   O7251     0.69338      .   S
    C419   O7251     0.69338      .   S
    C3838  O7252     0.74191      .   S
    C3834  O7252     0.74191      .   S
    C2398  O7253     0.74194      .   S
    C2394  O7253     0.74194      .   S
    C393   O7254     0.74342      .   S
    C2565  O7254     0.74342      .   S
    C3742  O7255     0.74280      .   S
    C3738  O7255     0.74280      .   S
    C497   O7256     0.74385      .   S
    C3621  O7256     0.74385      .   S
    C211   O7257     0.74497      .   S
    C2733  O7257     0.74497      .   S
    C3862  O7258     0.74287      .   S
    C3858  O7258     0.74287      .   S
    C2506  O7259     0.54078      .   S
    C2494  O7259     0.54078      .   S
    C289   O7260     0.74421      .   S
    C2661  O7260     0.74421      .   S
    C523   O7261     0.74422      .   S
    C3597  O7261     0.74422      .   S
    C2494  O7262     0.74223      .   S
    C2490  O7262     0.74223      .   S
    C315   O7263     0.74278      .   S
    C2637  O7263     0.74278      .   S
    C2530  O7264     0.54072      .   S
    C2518  O7264     0.54072      .   S
    C601   O7265     0.70656      .   S
    C3525  O7265     0.70656      .   S
    C3778  O7266     0.54023      .   S
    C3766  O7266     0.54023      .   S
    C2434  O7267     0.54073      .   S
    C2422  O7267     0.54073      .   S
    C419   O7268     0.74285      .   S
    C3693  O7268     0.74285      .   S
    C2518  O7269     0.74138      .   S
    C2514  O7269     0.74138      .   S
    C3766  O7270     0.74171      .   S
    C3762  O7270     0.74171      .   S
    C2422  O7271     0.74191      .   S
    C2418  O7271     0.74191      .   S
    C3834  O7272     0.70050      .   S
    C3833  O7272     0.70050      .   S
    C3834  O7273     0.70414      .   S
    C3835  O7273     0.70414      .   S
    C3630  O7274     0.54041      .   S
    C3616  O7274     0.54041      .   S
    C2407  O7275     0.54180      .   S
    C2393  O7275     0.54180      .   S
    C2742  O7276     0.54048      .   S
    C2728  O7276     0.54048      .   S
    C2394  O7277     0.70040      .   S
    C2393  O7277     0.70040      .   S
    C2394  O7278     0.70480      .   S
    C2395  O7278     0.70480      .   S
    C3621  O7279     0.70366      .   S
    C3616  O7279     0.70366      .   S
    C3621  O7280     0.70314      .   S
    C3620  O7280     0.70314      .   S
    C3847  O7281     0.54176      .   S
    C3833  O7281     0.54176      .   S
    C3738  O7282     0.70377      .   S
    C3739  O7282     0.70377      .   S
    C3738  O7283     0.70113      .   S
    C3737  O7283     0.70113      .   S
    C2733  O7284     0.70333      .   S
    C2728  O7284     0.70333      .   S
    C2733  O7285     0.70344      .   S
    C2732  O7285     0.70344      .   S
    C2565  O7286     0.70324      .   S
    C2560  O7286     0.70324      .   S
    C2565  O7287     0.70314      .   S
    C2564  O7287     0.70314      .   S
    C3848  O7288     0.54057      .   S
    C3835  O7288     0.54057      .   S
    C3858  O7289     0.70092      .   S
    C3857  O7289     0.70092      .   S
    C3858  O7290     0.70437      .   S
    C3859  O7290     0.70437      .   S
    C3606  O7291     0.54050      .   S
    C3592  O7291     0.54050      .   S
    C3752  O7292     0.54062      .   S
    C3739  O7292     0.54062      .   S
    C3597  O7293     0.70344      .   S
    C3592  O7293     0.70344      .   S
    C3597  O7294     0.70339      .   S
    C3596  O7294     0.70339      .   S
    C2574  O7295     0.54049      .   S
    C2560  O7295     0.54049      .   S
    C2490  O7296     0.70360      .   S
    C2491  O7296     0.70360      .   S
    C2490  O7297     0.70009      .   S
    C2489  O7297     0.70009      .   S
    C2661  O7298     0.70332      .   S
    C2660  O7298     0.70332      .   S
    C2661  O7299     0.70338      .   S
    C2656  O7299     0.70338      .   S
    C3525  O7300     0.70540      .   S
    C3520  O7300     0.70540      .   S
    C3525  O7301     0.70537      .   S
    C3524  O7301     0.70537      .   S
    C3751  O7302     0.54162      .   S
    C3737  O7302     0.54162      .   S
    C2637  O7303     0.70346      .   S
    C2632  O7303     0.70346      .   S
    C2637  O7304     0.70332      .   S
    C2636  O7304     0.70332      .   S
    C2408  O7305     0.54046      .   S
    C2395  O7305     0.54046      .   S
    C3871  O7306     0.54131      .   S
    C3857  O7306     0.54131      .   S
    C2432  O7307     0.54046      .   S
    C2419  O7307     0.54046      .   S
    C2577  O7308     0.54076      .   S
    C2564  O7308     0.54076      .   S
    C3776  O7309     0.54081      .   S
    C3763  O7309     0.54081      .   S
    C3534  O7310     0.54006      .   S
    C3520  O7310     0.54006      .   S
    C3872  O7311     0.54034      .   S
    C3859  O7311     0.54034      .   S
    C2646  O7312     0.54057      .   S
    C2632  O7312     0.54057      .   S
    C2504  O7313     0.54089      .   S
    C2491  O7313     0.54089      .   S
    C2514  O7314     0.70446      .   S
    C2515  O7314     0.70446      .   S
    C2514  O7315     0.70034      .   S
    C2513  O7315     0.70034      .   S
    C2528  O7316     0.54042      .   S
    C2515  O7316     0.54042      .   S
    C3762  O7317     0.70413      .   S
    C3763  O7317     0.70413      .   S
    C3762  O7318     0.70081      .   S
    C3761  O7318     0.70081      .   S
    C2418  O7319     0.70451      .   S
    C2419  O7319     0.70451      .   S
    C2418  O7320     0.69910      .   S
    C2417  O7320     0.69910      .   S
    C3693  O7321     0.70289      .   S
    C3688  O7321     0.70289      .   S
    C3693  O7322     0.70322      .   S
    C3692  O7322     0.70322      .   S
    C2673  O7323     0.54074      .   S
    C2660  O7323     0.54074      .   S
    C3633  O7324     0.54050      .   S
    C3620  O7324     0.54050      .   S
    C2670  O7325     0.54059      .   S
    C2656  O7325     0.54059      .   S
    C2503  O7326     0.54163      .   S
    C2489  O7326     0.54163      .   S
    C2393  O7327     0.69689      .   S
    C2392  O7327     0.69689      .   S
    C3616  O7328     0.69779      .   S
    C3617  O7328     0.69779      .   S
    C3833  O7329     0.69741      .   S
    C3832  O7329     0.69741      .   S
    C2728  O7330     0.69864      .   S
    C2729  O7330     0.69864      .   S
    C2745  O7331     0.54070      .   S
    C2732  O7331     0.54070      .   S
    C3835  O7332     0.69977      .   S
    C3836  O7332     0.69977      .   S
    C3609  O7333     0.54071      .   S
    C3596  O7333     0.54071      .   S
    C2649  O7334     0.54031      .   S
    C2636  O7334     0.54031      .   S
    C3702  O7335     0.54029      .   S
    C3688  O7335     0.54029      .   S
    C3537  O7336     0.54035      .   S
    C3524  O7336     0.54035      .   S
    C3705  O7337     0.54043      .   S
    C3692  O7337     0.54043      .   S
    C2395  O7338     0.70067      .   S
    C2396  O7338     0.70067      .   S
    C3739  O7339     0.69916      .   S
    C3740  O7339     0.69916      .   S
    C3592  O7340     0.69910      .   S
    C3593  O7340     0.69910      .   S
    C2560  O7341     0.69853      .   S
    C2561  O7341     0.69853      .   S
    C3737  O7342     0.69887      .   S
    C3736  O7342     0.69887      .   S
    C2527  O7343     0.54195      .   S
    C2513  O7343     0.54195      .   S
    C2564  O7344     0.70000      .   S
    C2563  O7344     0.70000      .   S
    C3857  O7345     0.69774      .   S
    C3856  O7345     0.69774      .   S
    C3620  O7346     0.70016      .   S
    C3619  O7346     0.70016      .   S
    C3859  O7347     0.70095      .   S
    C3860  O7347     0.70095      .   S
    C2491  O7348     0.70020      .   S
    C2492  O7348     0.70020      .   S
    C3775  O7349     0.54177      .   S
    C3761  O7349     0.54177      .   S
    C3520  O7350     0.69976      .   S
    C3521  O7350     0.69976      .   S
    C2632  O7351     0.69889      .   S
    C2633  O7351     0.69889      .   S
    C2732  O7352     0.70112      .   S
    C2731  O7352     0.70112      .   S
    C3763  O7353     0.69969      .   S
    C3764  O7353     0.69969      .   S
    C2419  O7354     0.70096      .   S
    C2420  O7354     0.70096      .   S
    C2431  O7355     0.54170      .   S
    C2417  O7355     0.54170      .   S
    C2515  O7356     0.69940      .   S
    C2516  O7356     0.69940      .   S
    C2660  O7357     0.69966      .   S
    C2659  O7357     0.69966      .   S
    C2656  O7358     0.69849      .   S
    C2657  O7358     0.69849      .   S
    C2489  O7359     0.69736      .   S
    C2488  O7359     0.69736      .   S
    C3596  O7360     0.69887      .   S
    C3595  O7360     0.69887      .   S
    C2636  O7361     0.69848      .   S
    C2635  O7361     0.69848      .   S
    C3524  O7362     0.69810      .   S
    C3523  O7362     0.69810      .   S
    C3688  O7363     0.69793      .   S
    C3689  O7363     0.69793      .   S
    C3692  O7364     0.69879      .   S
    C3691  O7364     0.69879      .   S
    C2513  O7365     0.69714      .   S
    C2512  O7365     0.69714      .   S
    C3761  O7366     0.69770      .   S
    C3760  O7366     0.69770      .   S
    C2417  O7367     0.69634      .   S
    C2416  O7367     0.69634      .   S
    C3617  O7368     0.54188      .   S
    C3631  O7368     0.54188      .   S
    C3617  O7369     0.70039      .   S
    C3618  O7369     0.70039      .   S
    C2392  O7370     0.54060      .   S
    C2406  O7370     0.54060      .   S
    C2392  O7371     0.70297      .   S
    C2397  O7371     0.70297      .   S
    C2729  O7372     0.54162      .   S
    C2743  O7372     0.54162      .   S
    C2729  O7373     0.70092      .   S
    C2730  O7373     0.70092      .   S
    C3832  O7374     0.54041      .   S
    C3846  O7374     0.54041      .   S
    C3832  O7375     0.70337      .   S
    C3837  O7375     0.70337      .   S
    C3836  O7376     0.54100      .   S
    C3849  O7376     0.54100      .   S
    C3836  O7377     0.70327      .   S
    C3837  O7377     0.70327      .   S
    C3593  O7378     0.54179      .   S
    C3607  O7378     0.54179      .   S
    C3593  O7379     0.70157      .   S
    C3594  O7379     0.70157      .   S
    C2396  O7380     0.54096      .   S
    C2409  O7380     0.54096      .   S
    C2396  O7381     0.70277      .   S
    C2397  O7381     0.70277      .   S
    C3740  O7382     0.54050      .   S
    C3753  O7382     0.54050      .   S
    C3740  O7383     0.70339      .   S
    C3741  O7383     0.70339      .   S
    C2561  O7384     0.54150      .   S
    C2575  O7384     0.54150      .   S
    C2561  O7385     0.70128      .   S
    C2562  O7385     0.70128      .   S
    C3619  O7386     0.70442      .   S
    C3618  O7386     0.70442      .   S
    C3619  O7387     0.54066      .   S
    C3632  O7387     0.54066      .   S
    C3736  O7388     0.54049      .   S
    C3750  O7388     0.54049      .   S
    C3736  O7389     0.70321      .   S
    C3741  O7389     0.70321      .   S
    C3856  O7390     0.54017      .   S
    C3870  O7390     0.54017      .   S
    C3856  O7391     0.70345      .   S
    C3861  O7391     0.70345      .   S
    C2492  O7392     0.54064      .   S
    C2505  O7392     0.54064      .   S
    C2492  O7393     0.70542      .   S
    C2493  O7393     0.70542      .   S
    C2563  O7394     0.54076      .   S
    C2576  O7394     0.54076      .   S
    C2563  O7395     0.70421      .   S
    C2562  O7395     0.70421      .   S
    C3764  O7396     0.54096      .   S
    C3777  O7396     0.54096      .   S
    C3764  O7397     0.70239      .   S
    C3765  O7397     0.70239      .   S
    C3860  O7398     0.54055      .   S
    C3873  O7398     0.54055      .   S
    C3860  O7399     0.70340      .   S
    C3861  O7399     0.70340      .   S
    C2731  O7400     0.70485      .   S
    C2730  O7400     0.70485      .   S
    C2731  O7401     0.54047      .   S
    C2744  O7401     0.54047      .   S
    C2516  O7402     0.54059      .   S
    C2529  O7402     0.54059      .   S
    C2516  O7403     0.70311      .   S
    C2517  O7403     0.70311      .   S
    C2420  O7404     0.54065      .   S
    C2433  O7404     0.54065      .   S
    C2420  O7405     0.70517      .   S
    C2421  O7405     0.70517      .   S
    C3521  O7406     0.54157      .   S
    C3535  O7406     0.54157      .   S
    C3521  O7407     0.70110      .   S
    C3522  O7407     0.70110      .   S
    C2633  O7408     0.54168      .   S
    C2647  O7408     0.54168      .   S
    C2633  O7409     0.70104      .   S
    C2634  O7409     0.70104      .   S
    C2488  O7410     0.53998      .   S
    C2502  O7410     0.53998      .   S
    C2488  O7411     0.70565      .   S
    C2493  O7411     0.70565      .   S
    C3595  O7412     0.54040      .   S
    C3608  O7412     0.54040      .   S
    C3595  O7413     0.70377      .   S
    C3594  O7413     0.70377      .   S
    C2659  O7414     0.54034      .   S
    C2672  O7414     0.54034      .   S
    C2659  O7415     0.70422      .   S
    C2658  O7415     0.70422      .   S
    C2657  O7416     0.54168      .   S
    C2671  O7416     0.54168      .   S
    C2657  O7417     0.70112      .   S
    C2658  O7417     0.70112      .   S
    C3523  O7418     0.54063      .   S
    C3536  O7418     0.54063      .   S
    C3523  O7419     0.70239      .   S
    C3522  O7419     0.70239      .   S
    C2635  O7420     0.54072      .   S
    C2648  O7420     0.54072      .   S
    C2635  O7421     0.70356      .   S
    C2634  O7421     0.70356      .   S
    C2512  O7422     0.70370      .   S
    C2517  O7422     0.70370      .   S
    C2512  O7423     0.54023      .   S
    C2526  O7423     0.54023      .   S
    C3689  O7424     0.54191      .   S
    C3703  O7424     0.54191      .   S
    C3689  O7425     0.70110      .   S
    C3690  O7425     0.70110      .   S
    C3691  O7426     0.54101      .   S
    C3704  O7426     0.54101      .   S
    C3691  O7427     0.70355      .   S
    C3690  O7427     0.70355      .   S
    C3760  O7428     0.70343      .   S
    C3765  O7428     0.70343      .   S
    C3760  O7429     0.54059      .   S
    C3774  O7429     0.54059      .   S
    C2416  O7430     0.70567      .   S
    C2421  O7430     0.70567      .   S
    C2416  O7431     0.53967      .   S
    C2430  O7431     0.53967      .   S
    C3837  O7432     0.74243      .   S
    C679   O7432     0.74243      .   S
    C3618  O7433     0.74259      .   S
    C3622  O7433     0.74259      .   S
    C2397  O7434     0.74291      .   S
    C159   O7434     0.74291      .   S
    C2730  O7435     0.74420      .   S
    C2734  O7435     0.74420      .   S
    C3741  O7436     0.74455      .   S
    C783   O7436     0.74455      .   S
    C3594  O7437     0.74325      .   S
    C3598  O7437     0.74325      .   S
    C2562  O7438     0.74286      .   S
    C2566  O7438     0.74286      .   S
    C3861  O7439     0.74464      .   S
    C653   O7439     0.74464      .   S
    C2493  O7440     0.70682      .   S
    C55    O7440     0.70682      .   S
    C3765  O7441     0.74156      .   S
    C757   O7441     0.74156      .   S
    C3522  O7442     0.74200      .   S
    C3526  O7442     0.74200      .   S
    C2658  O7443     0.74299      .   S
    C2662  O7443     0.74299      .   S
    C2634  O7444     0.74144      .   S
    C2638  O7444     0.74144      .   S
    C2517  O7445     0.74235      .   S
    C29    O7445     0.74235      .   S
    C2421  O7446     0.70673      .   S
    C133   O7446     0.70673      .   S
    C3690  O7447     0.74077      .   S
    C3694  O7447     0.74077      .   S
    C3622  O7448     0.54044      .   S
    C3634  O7448     0.54044      .   S
    C3622  O7449     0.67049      .   S
    C3623  O7449     0.67049      .   S
    C679   O7450     0.69469      .   S
    C678   O7450     0.69469      .   S
    C679   O7451     0.69223      .   S
    C680   O7451     0.69223      .   S
    C2579  O7452     0.54093      .   S
    C2567  O7452     0.54093      .   S
    C2734  O7453     0.54034      .   S
    C2746  O7453     0.54034      .   S
    C2734  O7454     0.67140      .   S
    C2735  O7454     0.67140      .   S
    C159   O7455     0.69509      .   S
    C160   O7455     0.69509      .   S
    C159   O7456     0.69145      .   S
    C158   O7456     0.69145      .   S
    C3598  O7457     0.54041      .   S
    C3610  O7457     0.54041      .   S
    C3598  O7458     0.67132      .   S
    C3599  O7458     0.67132      .   S
    C2651  O7459     0.54129      .   S
    C2639  O7459     0.54129      .   S
    C3539  O7460     0.54084      .   S
    C3527  O7460     0.54084      .   S
    C55    O7461     0.69680      .   S
    C56    O7461     0.69680      .   S
    C55    O7462     0.69416      .   S
    C54    O7462     0.69416      .   S
    C2675  O7463     0.54059      .   S
    C2663  O7463     0.54059      .   S
    C783   O7464     0.69397      .   S
    C782   O7464     0.69397      .   S
    C783   O7465     0.69340      .   S
    C784   O7465     0.69340      .   S
    C2566  O7466     0.67108      .   S
    C2567  O7466     0.67108      .   S
    C2566  O7467     0.54048      .   S
    C2578  O7467     0.54048      .   S
    C757   O7468     0.69211      .   S
    C756   O7468     0.69211      .   S
    C757   O7469     0.69458      .   S
    C758   O7469     0.69458      .   S
    C653   O7470     0.69536      .   S
    C654   O7470     0.69536      .   S
    C653   O7471     0.69262      .   S
    C652   O7471     0.69262      .   S
    C3707  O7472     0.54068      .   S
    C3695  O7472     0.54068      .   S
    C29    O7473     0.69231      .   S
    C28    O7473     0.69231      .   S
    C29    O7474     0.69497      .   S
    C30    O7474     0.69497      .   S
    C133   O7475     0.69793      .   S
    C132   O7475     0.69793      .   S
    C133   O7476     0.69266      .   S
    C134   O7476     0.69266      .   S
    C3526  O7477     0.67164      .   S
    C3527  O7477     0.67164      .   S
    C3526  O7478     0.54073      .   S
    C3538  O7478     0.54073      .   S
    C681   O7479     0.54004      .   S
    C678   O7479     0.54004      .   S
    C2638  O7480     0.67116      .   S
    C2639  O7480     0.67116      .   S
    C2638  O7481     0.54085      .   S
    C2650  O7481     0.54085      .   S
    C2662  O7482     0.67162      .   S
    C2663  O7482     0.67162      .   S
    C2662  O7483     0.54048      .   S
    C2674  O7483     0.54048      .   S
    C3694  O7484     0.67096      .   S
    C3695  O7484     0.67096      .   S
    C3694  O7485     0.54043      .   S
    C3706  O7485     0.54043      .   S
    C759   O7486     0.54027      .   S
    C756   O7486     0.54027      .   S
    C162   O7487     0.54066      .   S
    C160   O7487     0.54066      .   S
    C135   O7488     0.54051      .   S
    C132   O7488     0.54051      .   S
    C161   O7489     0.54037      .   S
    C158   O7489     0.54037      .   S
    C58    O7490     0.53993      .   S
    C56    O7490     0.53993      .   S
    C785   O7491     0.53999      .   S
    C782   O7491     0.53999      .   S
    C2567  O7492     0.74361      .   S
    C2568  O7492     0.74361      .   S
    C678   O7493     0.67472      .   S
    C677   O7493     0.67472      .   S
    C682   O7494     0.53992      .   S
    C680   O7494     0.53992      .   S
    C57    O7495     0.53894      .   S
    C54    O7495     0.53894      .   S
    C31    O7496     0.53971      .   S
    C28    O7496     0.53971      .   S
    C656   O7497     0.54029      .   S
    C654   O7497     0.54029      .   S
    C786   O7498     0.54021      .   S
    C784   O7498     0.54021      .   S
    C655   O7499     0.53969      .   S
    C652   O7499     0.53969      .   S
    C3527  O7500     0.74204      .   S
    C3528  O7500     0.74204      .   S
    C2639  O7501     0.74159      .   S
    C2640  O7501     0.74159      .   S
    C160   O7502     0.67444      .   S
    C156   O7502     0.67444      .   S
    C2663  O7503     0.74356      .   S
    C2664  O7503     0.74356      .   S
    C32    O7504     0.54013      .   S
    C30    O7504     0.54013      .   S
    C756   O7505     0.67167      .   S
    C755   O7505     0.67167      .   S
    C158   O7506     0.67159      .   S
    C157   O7506     0.67159      .   S
    C680   O7507     0.67135      .   S
    C676   O7507     0.67135      .   S
    C56    O7508     0.67433      .   S
    C52    O7508     0.67433      .   S
    C760   O7509     0.54052      .   S
    C758   O7509     0.54052      .   S
    C54    O7510     0.67182      .   S
    C53    O7510     0.67182      .   S
    C132   O7511     0.67552      .   S
    C131   O7511     0.67552      .   S
    C782   O7512     0.67322      .   S
    C781   O7512     0.67322      .   S
    C3695  O7513     0.74138      .   S
    C3696  O7513     0.74138      .   S
    C784   O7514     0.67268      .   S
    C780   O7514     0.67268      .   S
    C28    O7515     0.67184      .   S
    C27    O7515     0.67184      .   S
    C654   O7516     0.67438      .   S
    C650   O7516     0.67438      .   S
    C652   O7517     0.67198      .   S
    C651   O7517     0.67198      .   S
    C136   O7518     0.53957      .   S
    C134   O7518     0.53957      .   S
    C3635  O7519     0.54077      .   S
    C3623  O7519     0.54077      .   S
    C3623  O7520     0.74266      .   S
    C3624  O7520     0.74266      .   S
    C758   O7521     0.67372      .   S
    C754   O7521     0.67372      .   S
    C30    O7522     0.67367      .   S
    C26    O7522     0.67367      .   S
    C2747  O7523     0.54098      .   S
    C2735  O7523     0.54098      .   S
    C3611  O7524     0.54068      .   S
    C3599  O7524     0.54068      .   S
    C2735  O7525     0.74454      .   S
    C2736  O7525     0.74454      .   S
    C3599  O7526     0.74304      .   S
    C3600  O7526     0.74304      .   S
    C134   O7527     0.66983      .   S
    C130   O7527     0.66983      .   S
    C2580  O7528     0.54166      .   S
    C2569  O7528     0.54166      .   S
    C3639  O7529     0.54013      .   S
    C3629  O7529     0.54013      .   S
    C2652  O7530     0.54167      .   S
    C2641  O7530     0.54167      .   S
    C3540  O7531     0.54161      .   S
    C3529  O7531     0.54161      .   S
    C2676  O7532     0.54174      .   S
    C2665  O7532     0.54174      .   S
    C3615  O7533     0.54046      .   S
    C3605  O7533     0.54046      .   S
    C3708  O7534     0.54190      .   S
    C3697  O7534     0.54190      .   S
    C2751  O7535     0.54039      .   S
    C2741  O7535     0.54039      .   S
    C677   O7536     0.65610      .   S
    C676   O7536     0.65610      .   S
    C677   O7537     0.97478      .   S
    C683   O7537     0.97478      .   S
    C755   O7538     0.65702      .   S
    C754   O7538     0.65702      .   S
    C755   O7539     0.96531      .   S
    C761   O7539     0.96531      .   S
    C156   O7540     0.65663      .   S
    C157   O7540     0.65663      .   S
    C156   O7541     0.97978      .   S
    C164   O7541     0.97978      .   S
    C676   O7542     0.96891      .   S
    C684   O7542     0.96891      .   S
    C157   O7543     0.96783      .   S
    C163   O7543     0.96783      .   S
    C52    O7544     0.65637      .   S
    C53    O7544     0.65637      .   S
    C52    O7545     0.97796      .   S
    C60    O7545     0.97796      .   S
    C2568  O7546     0.70191      .   S
    C2569  O7546     0.70191      .   S
    C2568  O7547     0.70506      .   S
    C2573  O7547     0.70506      .   S
    C53    O7548     0.97007      .   S
    C59    O7548     0.97007      .   S
    C754   O7549     0.97794      .   S
    C762   O7549     0.97794      .   S
    C131   O7550     0.65590      .   S
    C130   O7550     0.65590      .   S
    C131   O7551     0.97940      .   S
    C137   O7551     0.97940      .   S
    C27    O7552     0.65677      .   S
    C26    O7552     0.65677      .   S
    C27    O7553     0.96631      .   S
    C33    O7553     0.96631      .   S
    C781   O7554     0.65682      .   S
    C780   O7554     0.65682      .   S
    C781   O7555     0.97331      .   S
    C787   O7555     0.97331      .   S
    C26    O7556     0.98076      .   S
    C34    O7556     0.98076      .   S
    C780   O7557     0.97482      .   S
    C788   O7557     0.97482      .   S
    C3528  O7558     0.70234      .   S
    C3529  O7558     0.70234      .   S
    C3528  O7559     0.70400      .   S
    C3533  O7559     0.70400      .   S
    C650   O7560     0.65690      .   S
    C651   O7560     0.65690      .   S
    C650   O7561     0.97956      .   S
    C658   O7561     0.97956      .   S
    C2640  O7562     0.70188      .   S
    C2641  O7562     0.70188      .   S
    C2640  O7563     0.70409      .   S
    C2645  O7563     0.70409      .   S
    C651   O7564     0.96999      .   S
    C657   O7564     0.96999      .   S
    C2569  O7565     0.69869      .   S
    C2570  O7565     0.69869      .   S
    C2664  O7566     0.70188      .   S
    C2665  O7566     0.70188      .   S
    C2664  O7567     0.70496      .   S
    C2669  O7567     0.70496      .   S
    C130   O7568     0.96538      .   S
    C138   O7568     0.96538      .   S
    C3696  O7569     0.70185      .   S
    C3697  O7569     0.70185      .   S
    C3696  O7570     0.70448      .   S
    C3701  O7570     0.70448      .   S
    C2641  O7571     0.69856      .   S
    C2642  O7571     0.69856      .   S
    C3529  O7572     0.69875      .   S
    C3530  O7572     0.69875      .   S
    C3629  O7573     0.70523      .   S
    C3624  O7573     0.70523      .   S
    C3629  O7574     0.70002      .   S
    C3628  O7574     0.70002      .   S
    C3624  O7575     0.70149      .   S
    C3625  O7575     0.70149      .   S
    C2665  O7576     0.69902      .   S
    C2666  O7576     0.69902      .   S
    C3697  O7577     0.69822      .   S
    C3698  O7577     0.69822      .   S
    C3600  O7578     0.70519      .   S
    C3605  O7578     0.70519      .   S
    C3600  O7579     0.70147      .   S
    C3601  O7579     0.70147      .   S
    C3605  O7580     0.69995      .   S
    C3604  O7580     0.69995      .   S
    C2736  O7581     0.70546      .   S
    C2741  O7581     0.70546      .   S
    C2736  O7582     0.70192      .   S
    C2737  O7582     0.70192      .   S
    C2741  O7583     0.70096      .   S
    C2740  O7583     0.70096      .   S
    C2583  O7584     0.54029      .   S
    C2573  O7584     0.54029      .   S
    C2573  O7585     0.69951      .   S
    C2572  O7585     0.69951      .   S
    C761   O7586     0.96600      .   S
    C764   O7586     0.96600      .   S
    C3543  O7587     0.54047      .   S
    C3533  O7587     0.54047      .   S
    C2679  O7588     0.54034      .   S
    C2669  O7588     0.54034      .   S
    C2655  O7589     0.54035      .   S
    C2645  O7589     0.54035      .   S
    C3533  O7590     0.69848      .   S
    C3532  O7590     0.69848      .   S
    C2669  O7591     0.69954      .   S
    C2668  O7591     0.69954      .   S
    C683   O7592     0.97379      .   S
    C686   O7592     0.97379      .   S
    C2645  O7593     0.69828      .   S
    C2644  O7593     0.69828      .   S
    C2570  O7594     0.54141      .   S
    C2581  O7594     0.54141      .   S
    C2570  O7595     0.70248      .   S
    C2571  O7595     0.70248      .   S
    C3711  O7596     0.54028      .   S
    C3701  O7596     0.54028      .   S
    C137   O7597     0.97838      .   S
    C140   O7597     0.97838      .   S
    C3701  O7598     0.69807      .   S
    C3700  O7598     0.69807      .   S
    C164   O7599     1.02958      .   S
    C180   O7599     1.02958      .   S
    C164   O7600     0.99119      .   S
    C174   O7600     0.99119      .   S
    C164   O7601     1.02948      .   S
    C181   O7601     1.02948      .   S
    C60    O7602     1.02954      .   S
    C76    O7602     1.02954      .   S
    C60    O7603     0.98976      .   S
    C70    O7603     0.98976      .   S
    C60    O7604     1.03142      .   S
    C77    O7604     1.03142      .   S
    C163   O7605     0.96885      .   S
    C166   O7605     0.96885      .   S
    C59    O7606     0.97039      .   S
    C62    O7606     0.97039      .   S
    C33    O7607     0.96709      .   S
    C36    O7607     0.96709      .   S
    C3638  O7608     0.54141      .   S
    C3628  O7608     0.54141      .   S
    C684   O7609     0.97984      .   S
    C694   O7609     0.97984      .   S
    C3530  O7610     0.54165      .   S
    C3541  O7610     0.54165      .   S
    C3530  O7611     0.70223      .   S
    C3531  O7611     0.70223      .   S
    C2642  O7612     0.54151      .   S
    C2653  O7612     0.54151      .   S
    C2642  O7613     0.70214      .   S
    C2643  O7613     0.70214      .   S
    C3628  O7614     0.70193      .   S
    C3627  O7614     0.70193      .   S
    C762   O7615     1.03221      .   S
    C778   O7615     1.03221      .   S
    C762   O7616     1.02879      .   S
    C779   O7616     1.02879      .   S
    C762   O7617     0.98912      .   S
    C772   O7617     0.98912      .   S
    C3625  O7618     0.54187      .   S
    C3636  O7618     0.54187      .   S
    C3625  O7619     0.69751      .   S
    C3626  O7619     0.69751      .   S
    C787   O7620     0.97356      .   S
    C790   O7620     0.97356      .   S
    C2666  O7621     0.54146      .   S
    C2677  O7621     0.54146      .   S
    C2666  O7622     0.70231      .   S
    C2667  O7622     0.70231      .   S
    C34    O7623     1.02936      .   S
    C50    O7623     1.02936      .   S
    C34    O7624     0.99066      .   S
    C44    O7624     0.99066      .   S
    C34    O7625     1.03064      .   S
    C51    O7625     1.03064      .   S
    C3614  O7626     0.54148      .   S
    C3604  O7626     0.54148      .   S
    C657   O7627     0.97047      .   S
    C660   O7627     0.97047      .   S
    C3601  O7628     0.54171      .   S
    C3612  O7628     0.54171      .   S
    C3601  O7629     0.69783      .   S
    C3602  O7629     0.69783      .   S
    C658   O7630     1.03199      .   S
    C674   O7630     1.03199      .   S
    C658   O7631     0.99086      .   S
    C668   O7631     0.99086      .   S
    C658   O7632     1.03090      .   S
    C675   O7632     1.03090      .   S
    C3604  O7633     0.70251      .   S
    C3603  O7633     0.70251      .   S
    C138   O7634     1.02399      .   S
    C154   O7634     1.02399      .   S
    C138   O7635     0.97724      .   S
    C148   O7635     0.97724      .   S
    C788   O7636     1.03298      .   S
    C805   O7636     1.03298      .   S
    C788   O7637     0.98605      .   S
    C798   O7637     0.98605      .   S
    C3698  O7638     0.54150      .   S
    C3709  O7638     0.54150      .   S
    C3698  O7639     0.70186      .   S
    C3699  O7639     0.70186      .   S
    C2737  O7640     0.54159      .   S
    C2748  O7640     0.54159      .   S
    C2737  O7641     0.69842      .   S
    C2738  O7641     0.69842      .   S
    C2750  O7642     0.54169      .   S
    C2740  O7642     0.54169      .   S
    C2740  O7643     0.70179      .   S
    C2739  O7643     0.70179      .   S
    C700   O7644     1.02640      .   S
    C685   O7644     1.02640      .   S
    C804   O7645     1.03325      .   S
    C789   O7645     1.03325      .   S
    C770   O7646     0.54059      .   S
    C768   O7646     0.54059      .   S
    C692   O7647     0.53979      .   S
    C690   O7647     0.53979      .   S
    C2572  O7648     0.70253      .   S
    C2571  O7648     0.70253      .   S
    C2572  O7649     0.54139      .   S
    C2582  O7649     0.54139      .   S
    C172   O7650     0.54029      .   S
    C170   O7650     0.54029      .   S
    C42    O7651     0.54019      .   S
    C40    O7651     0.54019      .   S
    C796   O7652     0.53979      .   S
    C794   O7652     0.53979      .   S
    C2571  O7653     0.74265      .   S
    C1185  O7653     0.74265      .   S
    C68    O7654     0.53962      .   S
    C66    O7654     0.53962      .   S
    C3532  O7655     0.70288      .   S
    C3531  O7655     0.70288      .   S
    C3532  O7656     0.54162      .   S
    C3542  O7656     0.54162      .   S
    C2668  O7657     0.70201      .   S
    C2667  O7657     0.70201      .   S
    C2668  O7658     0.54159      .   S
    C2678  O7658     0.54159      .   S
    C2644  O7659     0.70234      .   S
    C2643  O7659     0.70234      .   S
    C2644  O7660     0.54152      .   S
    C2654  O7660     0.54152      .   S
    C666   O7661     0.53987      .   S
    C664   O7661     0.53987      .   S
    C74    O7662     0.53982      .   S
    C71    O7662     0.53982      .   S
    C3700  O7663     0.70153      .   S
    C3699  O7663     0.70153      .   S
    C3700  O7664     0.54144      .   S
    C3710  O7664     0.54144      .   S
    C178   O7665     0.54038      .   S
    C175   O7665     0.54038      .   S
    C3531  O7666     0.74215      .   S
    C1200  O7666     0.74215      .   S
    C2643  O7667     0.74192      .   S
    C2156  O7667     0.74192      .   S
    C146   O7668     0.54036      .   S
    C144   O7668     0.54036      .   S
    C2667  O7669     0.74271      .   S
    C1182  O7669     0.74271      .   S
    C3627  O7670     0.70252      .   S
    C3626  O7670     0.70252      .   S
    C3627  O7671     0.74202      .   S
    C1203  O7671     0.74202      .   S
    C3626  O7672     0.54167      .   S
    C3637  O7672     0.54167      .   S
    C3699  O7673     0.74031      .   S
    C2138  O7673     0.74031      .   S
    C48    O7674     0.54005      .   S
    C45    O7674     0.54005      .   S
    C3602  O7675     0.70252      .   S
    C3603  O7675     0.70252      .   S
    C3602  O7676     0.54134      .   S
    C3613  O7676     0.54134      .   S
    C776   O7677     0.53997      .   S
    C773   O7677     0.53997      .   S
    C686   O7678     0.67297      .   S
    C690   O7678     0.67297      .   S
    C686   O7679     0.65706      .   S
    C687   O7679     0.65706      .   S
    C672   O7680     0.53997      .   S
    C669   O7680     0.53997      .   S
    C698   O7681     0.54023      .   S
    C695   O7681     0.54023      .   S
    C3603  O7682     0.74249      .   S
    C2141  O7682     0.74249      .   S
    C764   O7683     0.67198      .   S
    C768   O7683     0.67198      .   S
    C764   O7684     0.65628      .   S
    C765   O7684     0.65628      .   S
    C2738  O7685     0.70286      .   S
    C2739  O7685     0.70286      .   S
    C2738  O7686     0.54133      .   S
    C2749  O7686     0.54133      .   S
    C802   O7687     0.53958      .   S
    C799   O7687     0.53958      .   S
    C2739  O7688     0.74377      .   S
    C2159  O7688     0.74377      .   S
    C166   O7689     0.67236      .   S
    C170   O7689     0.67236      .   S
    C166   O7690     0.65609      .   S
    C167   O7690     0.65609      .   S
    C152   O7691     0.53966      .   S
    C149   O7691     0.53966      .   S
    C690   O7692     0.69348      .   S
    C689   O7692     0.69348      .   S
    C36    O7693     0.67196      .   S
    C40    O7693     0.67196      .   S
    C36    O7694     0.65657      .   S
    C37    O7694     0.65657      .   S
    C140   O7695     0.67470      .   S
    C144   O7695     0.67470      .   S
    C140   O7696     0.65716      .   S
    C141   O7696     0.65716      .   S
    C62    O7697     0.67257      .   S
    C66    O7697     0.67257      .   S
    C62    O7698     0.65611      .   S
    C63    O7698     0.65611      .   S
    C70    O7699     0.67467      .   S
    C71    O7699     0.67467      .   S
    C70    O7700     0.65948      .   S
    C69    O7700     0.65948      .   S
    C768   O7701     0.69323      .   S
    C767   O7701     0.69323      .   S
    C790   O7702     0.67359      .   S
    C794   O7702     0.67359      .   S
    C790   O7703     0.65653      .   S
    C791   O7703     0.65653      .   S
    C174   O7704     0.67467      .   S
    C175   O7704     0.67467      .   S
    C174   O7705     0.66012      .   S
    C173   O7705     0.66012      .   S
    C701   O7706     1.02699      .   S
    C685   O7706     1.02699      .   S
    C4110  O7707     0.54020      .   S
    C4096  O7707     0.54020      .   S
    C660   O7708     0.67292      .   S
    C664   O7708     0.67292      .   S
    C660   O7709     0.65645      .   S
    C661   O7709     0.65645      .   S
    C170   O7710     0.69266      .   S
    C169   O7710     0.69266      .   S
    C694   O7711     0.67179      .   S
    C695   O7711     0.67179      .   S
    C694   O7712     0.65962      .   S
    C693   O7712     0.65962      .   S
    C148   O7713     0.67170      .   S
    C149   O7713     0.67170      .   S
    C148   O7714     0.65838      .   S
    C147   O7714     0.65838      .   S
    C155   O7715     1.02160      .   S
    C139   O7715     1.02160      .   S
    C44    O7716     0.67393      .   S
    C45    O7716     0.67393      .   S
    C44    O7717     0.66013      .   S
    C43    O7717     0.66013      .   S
    C40    O7718     0.69282      .   S
    C39    O7718     0.69282      .   S
    C772   O7719     0.67364      .   S
    C773   O7719     0.67364      .   S
    C772   O7720     0.65957      .   S
    C771   O7720     0.65957      .   S
    C794   O7721     0.69542      .   S
    C793   O7721     0.69542      .   S
    C668   O7722     0.67437      .   S
    C669   O7722     0.67437      .   S
    C668   O7723     0.66041      .   S
    C667   O7723     0.66041      .   S
    C66    O7724     0.69276      .   S
    C65    O7724     0.69276      .   S
    C798   O7725     0.67338      .   S
    C799   O7725     0.67338      .   S
    C798   O7726     0.65966      .   S
    C797   O7726     0.65966      .   S
    C71    O7727     0.69443      .   S
    C72    O7727     0.69443      .   S
    C664   O7728     0.69254      .   S
    C663   O7728     0.69254      .   S
    C144   O7729     0.69552      .   S
    C143   O7729     0.69552      .   S
    C4182  O7730     0.54016      .   S
    C4168  O7730     0.54016      .   S
    C175   O7731     0.69431      .   S
    C176   O7731     0.69431      .   S
    C3918  O7732     0.54014      .   S
    C3904  O7732     0.54014      .   S
    C3126  O7733     0.54049      .   S
    C3112  O7733     0.54049      .   S
    C2934  O7734     0.54037      .   S
    C2920  O7734     0.54037      .   S
    C3990  O7735     0.54044      .   S
    C3976  O7735     0.54044      .   S
    C45    O7736     0.69398      .   S
    C46    O7736     0.69398      .   S
    C695   O7737     0.68990      .   S
    C696   O7737     0.68990      .   S
    C773   O7738     0.69441      .   S
    C774   O7738     0.69441      .   S
    C669   O7739     0.69408      .   S
    C670   O7739     0.69408      .   S
    C2862  O7740     0.54041      .   S
    C2848  O7740     0.54041      .   S
    C149   O7741     0.69115      .   S
    C150   O7741     0.69115      .   S
    C799   O7742     0.69336      .   S
    C800   O7742     0.69336      .   S
    C3057  O7743     0.54070      .   S
    C3044  O7743     0.54070      .   S
    C3249  O7744     0.54050      .   S
    C3236  O7744     0.54050      .   S
    C139   O7745     0.97028      .   S
    C141   O7745     0.97028      .   S
    C139   O7746     0.98430      .   S
    C147   O7746     0.98430      .   S
    C1185  O7747     0.70229      .   S
    C1030  O7747     0.70229      .   S
    C1185  O7748     0.70344      .   S
    C1138  O7748     0.70344      .   S
    C687   O7749     0.97673      .   S
    C685   O7749     0.97673      .   S
    C687   O7750     0.67335      .   S
    C688   O7750     0.67335      .   S
    C4593  O7751     0.54052      .   S
    C4580  O7751     0.54052      .   S
    C141   O7752     0.67144      .   S
    C142   O7752     0.67144      .   S
    C3321  O7753     0.54068      .   S
    C3308  O7753     0.54068      .   S
    C147   O7754     0.67418      .   S
    C151   O7754     0.67418      .   S
    C167   O7755     0.97313      .   S
    C165   O7755     0.97313      .   S
    C167   O7756     0.67298      .   S
    C168   O7756     0.67298      .   S
    C63    O7757     0.97278      .   S
    C61    O7757     0.97278      .   S
    C63    O7758     0.67315      .   S
    C64    O7758     0.67315      .   S
    C69    O7759     0.98377      .   S
    C61    O7759     0.98377      .   S
    C69    O7760     0.67231      .   S
    C73    O7760     0.67231      .   S
    C1200  O7761     0.70204      .   S
    C1060  O7761     0.70204      .   S
    C1200  O7762     0.70301      .   S
    C1102  O7762     0.70301      .   S
    C765   O7763     0.97333      .   S
    C763   O7763     0.97333      .   S
    C765   O7764     0.67245      .   S
    C766   O7764     0.67245      .   S
    C3345  O7765     0.54062      .   S
    C3332  O7765     0.54062      .   S
    C1031  O7766     0.54144      .   S
    C1030  O7766     0.54144      .   S
    C37    O7767     0.97635      .   S
    C35    O7767     0.97635      .   S
    C37    O7768     0.67286      .   S
    C38    O7768     0.67286      .   S
    C1203  O7769     0.70288      .   S
    C1096  O7769     0.70288      .   S
    C1203  O7770     0.70134      .   S
    C1066  O7770     0.70134      .   S
    C173   O7771     0.98363      .   S
    C165   O7771     0.98363      .   S
    C173   O7772     0.67224      .   S
    C177   O7772     0.67224      .   S
    C2156  O7773     0.70209      .   S
    C2060  O7773     0.70209      .   S
    C2156  O7774     0.70243      .   S
    C2024  O7774     0.70243      .   S
    C1139  O7775     0.54156      .   S
    C1138  O7775     0.54156      .   S
    C1182  O7776     0.70288      .   S
    C1024  O7776     0.70288      .   S
    C1182  O7777     0.70219      .   S
    C1132  O7777     0.70219      .   S
    C4111  O7778     0.54161      .   S
    C4097  O7778     0.54161      .   S
    C791   O7779     0.97495      .   S
    C789   O7779     0.97495      .   S
    C791   O7780     0.67265      .   S
    C792   O7780     0.67265      .   S
    C4665  O7781     0.54029      .   S
    C4652  O7781     0.54029      .   S
    C2141  O7782     0.70281      .   S
    C1994  O7782     0.70281      .   S
    C2141  O7783     0.70288      .   S
    C2096  O7783     0.70288      .   S
    C4096  O7784     0.69902      .   S
    C4097  O7784     0.69902      .   S
    C4096  O7785     0.70334      .   S
    C4101  O7785     0.70334      .   S
    C685   O7786     0.98913      .   S
    C693   O7786     0.98913      .   S
    C693   O7787     0.67489      .   S
    C697   O7787     0.67489      .   S
    C661   O7788     0.97645      .   S
    C659   O7788     0.97645      .   S
    C661   O7789     0.67356      .   S
    C662   O7789     0.67356      .   S
    C4305  O7790     0.54062      .   S
    C4292  O7790     0.54062      .   S
    C2138  O7791     0.70222      .   S
    C1988  O7791     0.70222      .   S
    C2138  O7792     0.70152      .   S
    C2102  O7792     0.70152      .   S
    C1097  O7793     0.54160      .   S
    C1096  O7793     0.54160      .   S
    C1061  O7794     0.54178      .   S
    C1060  O7794     0.54178      .   S
    C43    O7795     0.98614      .   S
    C35    O7795     0.98614      .   S
    C43    O7796     0.67244      .   S
    C47    O7796     0.67244      .   S
    C2061  O7797     0.54166      .   S
    C2060  O7797     0.54166      .   S
    C771   O7798     0.98340      .   S
    C763   O7798     0.98340      .   S
    C771   O7799     0.67224      .   S
    C775   O7799     0.67224      .   S
    C667   O7800     0.98710      .   S
    C659   O7800     0.98710      .   S
    C667   O7801     0.67296      .   S
    C671   O7801     0.67296      .   S
    C1103  O7802     0.54153      .   S
    C1102  O7802     0.54153      .   S
    C2159  O7803     0.70409      .   S
    C2066  O7803     0.70409      .   S
    C2159  O7804     0.70238      .   S
    C2030  O7804     0.70238      .   S
    C1025  O7805     0.54145      .   S
    C1024  O7805     0.54145      .   S
    C1995  O7806     0.54166      .   S
    C1994  O7806     0.54166      .   S
    C689   O7807     0.69427      .   S
    C688   O7807     0.69427      .   S
    C689   O7808     0.74494      .   S
    C4101  O7808     0.74494      .   S
    C1133  O7809     0.54162      .   S
    C1132  O7809     0.54162      .   S
    C797   O7810     0.98677      .   S
    C789   O7810     0.98677      .   S
    C797   O7811     0.67361      .   S
    C801   O7811     0.67361      .   S
    C1989  O7812     0.54169      .   S
    C1988  O7812     0.54169      .   S
    C1067  O7813     0.54167      .   S
    C1066  O7813     0.54167      .   S
    C2025  O7814     0.54197      .   S
    C2024  O7814     0.54197      .   S
    C2097  O7815     0.54157      .   S
    C2096  O7815     0.54157      .   S
    C4183  O7816     0.54187      .   S
    C4169  O7816     0.54187      .   S
    C2103  O7817     0.54179      .   S
    C2102  O7817     0.54179      .   S
    C3904  O7818     0.69937      .   S
    C3905  O7818     0.69937      .   S
    C3904  O7819     0.70534      .   S
    C3909  O7819     0.70534      .   S
    C2067  O7820     0.54154      .   S
    C2066  O7820     0.54154      .   S
    C4168  O7821     0.69808      .   S
    C4169  O7821     0.69808      .   S
    C4168  O7822     0.70337      .   S
    C4173  O7822     0.70337      .   S
    C3112  O7823     0.69785      .   S
    C3113  O7823     0.69785      .   S
    C3112  O7824     0.70323      .   S
    C3117  O7824     0.70323      .   S
    C169   O7825     0.69406      .   S
    C168   O7825     0.69406      .   S
    C169   O7826     0.74256      .   S
    C3117  O7826     0.74256      .   S
    C3919  O7827     0.54190      .   S
    C3905  O7827     0.54190      .   S
    C2031  O7828     0.54182      .   S
    C2030  O7828     0.54182      .   S
    C3414  O7829     0.54055      .   S
    C3400  O7829     0.54055      .   S
    C767   O7830     0.69375      .   S
    C766   O7830     0.69375      .   S
    C767   O7831     0.74138      .   S
    C3981  O7831     0.74138      .   S
    C3976  O7832     0.69850      .   S
    C3977  O7832     0.69850      .   S
    C3976  O7833     0.70351      .   S
    C3981  O7833     0.70351      .   S
    C39    O7834     0.69380      .   S
    C38    O7834     0.69380      .   S
    C39    O7835     0.74235      .   S
    C2853  O7835     0.74235      .   S
    C793   O7836     0.69546      .   S
    C792   O7836     0.69546      .   S
    C793   O7837     0.70672      .   S
    C3909  O7837     0.70672      .   S
    C2848  O7838     0.69747      .   S
    C2849  O7838     0.69747      .   S
    C2848  O7839     0.70332      .   S
    C2853  O7839     0.70332      .   S
    C2920  O7840     0.69807      .   S
    C2921  O7840     0.69807      .   S
    C2920  O7841     0.70343      .   S
    C2925  O7841     0.70343      .   S
    C65    O7842     0.69365      .   S
    C64    O7842     0.69365      .   S
    C65    O7843     0.74324      .   S
    C2925  O7843     0.74324      .   S
    C3127  O7844     0.54142      .   S
    C3113  O7844     0.54142      .   S
    C663   O7845     0.69474      .   S
    C662   O7845     0.69474      .   S
    C663   O7846     0.74396      .   S
    C4173  O7846     0.74396      .   S
    C72    O7847     0.69235      .   S
    C73    O7847     0.69235      .   S
    C72    O7848     0.74447      .   S
    C3237  O7848     0.74447      .   S
    C143   O7849     0.69298      .   S
    C142   O7849     0.69298      .   S
    C143   O7850     0.74476      .   S
    C3045  O7850     0.74476      .   S
    C3991  O7851     0.54190      .   S
    C3977  O7851     0.54190      .   S
    C2863  O7852     0.54181      .   S
    C2849  O7852     0.54181      .   S
    C2935  O7853     0.54175      .   S
    C2921  O7853     0.54175      .   S
    C1030  O7854     0.70195      .   S
    C1029  O7854     0.70195      .   S
    C1138  O7855     0.70383      .   S
    C1137  O7855     0.70383      .   S
    C176   O7856     0.69194      .   S
    C177   O7856     0.69194      .   S
    C176   O7857     0.74322      .   S
    C3333  O7857     0.74322      .   S
    C4374  O7858     0.54120      .   S
    C4360  O7858     0.54120      .   S
    C150   O7859     0.69400      .   S
    C151   O7859     0.69400      .   S
    C150   O7860     0.74198      .   S
    C3405  O7860     0.74198      .   S
    C1096  O7861     0.70378      .   S
    C1095  O7861     0.70378      .   S
    C1060  O7862     0.70182      .   S
    C1059  O7862     0.70182      .   S
    C46    O7863     0.69250      .   S
    C47    O7863     0.69250      .   S
    C46    O7864     0.74335      .   S
    C3309  O7864     0.74335      .   S
    C1102  O7865     0.70302      .   S
    C1101  O7865     0.70302      .   S
    C4097  O7866     0.70151      .   S
    C4098  O7866     0.70151      .   S
    C2060  O7867     0.70215      .   S
    C2059  O7867     0.70215      .   S
    C696   O7868     0.69345      .   S
    C697   O7868     0.69345      .   S
    C696   O7869     0.74066      .   S
    C4365  O7869     0.74066      .   S
    C670   O7870     0.69306      .   S
    C671   O7870     0.69306      .   S
    C670   O7871     0.74516      .   S
    C4293  O7871     0.74516      .   S
    C1994  O7872     0.70337      .   S
    C1993  O7872     0.70337      .   S
    C3236  O7873     0.70345      .   S
    C3237  O7873     0.70345      .   S
    C3236  O7874     0.70049      .   S
    C3235  O7874     0.70049      .   S
    C774   O7875     0.69260      .   S
    C775   O7875     0.69260      .   S
    C774   O7876     0.74371      .   S
    C4581  O7876     0.74371      .   S
    C3044  O7877     0.70325      .   S
    C3045  O7877     0.70325      .   S
    C3044  O7878     0.70078      .   S
    C3043  O7878     0.70078      .   S
    C1024  O7879     0.70324      .   S
    C1023  O7879     0.70324      .   S
    C1066  O7880     0.70118      .   S
    C1065  O7880     0.70118      .   S
    C1132  O7881     0.70234      .   S
    C1131  O7881     0.70234      .   S
    C2024  O7882     0.70214      .   S
    C2023  O7882     0.70214      .   S
    C2096  O7883     0.70183      .   S
    C2095  O7883     0.70183      .   S
    C1988  O7884     0.70213      .   S
    C1987  O7884     0.70213      .   S
    C688   O7885     0.54019      .   S
    C691   O7885     0.54019      .   S
    C2102  O7886     0.70163      .   S
    C2101  O7886     0.70163      .   S
    C800   O7887     0.69361      .   S
    C801   O7887     0.69361      .   S
    C800   O7888     0.74479      .   S
    C4653  O7888     0.74479      .   S
    C2066  O7889     0.70482      .   S
    C2065  O7889     0.70482      .   S
    C4101  O7890     0.70326      .   S
    C4100  O7890     0.70326      .   S
    C2030  O7891     0.70129      .   S
    C2029  O7891     0.70129      .   S
    C3308  O7892     0.70344      .   S
    C3309  O7892     0.70344      .   S
    C3308  O7893     0.69947      .   S
    C3307  O7893     0.69947      .   S
    C142   O7894     0.53998      .   S
    C145   O7894     0.53998      .   S
    C168   O7895     0.54030      .   S
    C171   O7895     0.54030      .   S
    C3332  O7896     0.70334      .   S
    C3333  O7896     0.70334      .   S
    C3332  O7897     0.70032      .   S
    C3331  O7897     0.70032      .   S
    C151   O7898     0.54059      .   S
    C153   O7898     0.54059      .   S
    C4580  O7899     0.70298      .   S
    C4581  O7899     0.70298      .   S
    C4580  O7900     0.69943      .   S
    C4579  O7900     0.69943      .   S
    C64    O7901     0.54032      .   S
    C67    O7901     0.54032      .   S
    C73    O7902     0.53993      .   S
    C75    O7902     0.53993      .   S
    C3905  O7903     0.70085      .   S
    C3906  O7903     0.70085      .   S
    C4169  O7904     0.70142      .   S
    C4170  O7904     0.70142      .   S
    C38    O7905     0.54022      .   S
    C41    O7905     0.54022      .   S
    C3113  O7906     0.70075      .   S
    C3114  O7906     0.70075      .   S
    C3056  O7907     0.54035      .   S
    C3043  O7907     0.54035      .   S
    C792   O7908     0.53988      .   S
    C795   O7908     0.53988      .   S
    C3248  O7909     0.54047      .   S
    C3235  O7909     0.54047      .   S
    C4292  O7910     0.70333      .   S
    C4293  O7910     0.70333      .   S
    C4292  O7911     0.70072      .   S
    C4291  O7911     0.70072      .   S
    C766   O7912     0.54045      .   S
    C769   O7912     0.54045      .   S
    C177   O7913     0.53989      .   S
    C179   O7913     0.53989      .   S
    C3117  O7914     0.70317      .   S
    C3116  O7914     0.70317      .   S
    C662   O7915     0.54012      .   S
    C665   O7915     0.54012      .   S
    C3909  O7916     0.70550      .   S
    C3908  O7916     0.70550      .   S
    C2849  O7917     0.70080      .   S
    C2850  O7917     0.70080      .   S
    C3977  O7918     0.70073      .   S
    C3978  O7918     0.70073      .   S
    C4652  O7919     0.70352      .   S
    C4653  O7919     0.70352      .   S
    C4652  O7920     0.69948      .   S
    C4651  O7920     0.69948      .   S
    C2853  O7921     0.70289      .   S
    C2852  O7921     0.70289      .   S
    C3981  O7922     0.70253      .   S
    C3980  O7922     0.70253      .   S
    C2921  O7923     0.70062      .   S
    C2922  O7923     0.70062      .   S
    C47    O7924     0.53979      .   S
    C49    O7924     0.53979      .   S
    C3320  O7925     0.54049      .   S
    C3307  O7925     0.54049      .   S
    C697   O7926     0.54043      .   S
    C699   O7926     0.54043      .   S
    C4173  O7927     0.70356      .   S
    C4172  O7927     0.70356      .   S
    C3400  O7928     0.70331      .   S
    C3405  O7928     0.70331      .   S
    C3400  O7929     0.69717      .   S
    C3401  O7929     0.69717      .   S
    C2925  O7930     0.70327      .   S
    C2924  O7930     0.70327      .   S
    C671   O7931     0.53993      .   S
    C673   O7931     0.53993      .   S
    C775   O7932     0.53939      .   S
    C777   O7932     0.53939      .   S
    C4592  O7933     0.54035      .   S
    C4579  O7933     0.54035      .   S
    C3237  O7934     0.70322      .   S
    C3232  O7934     0.70322      .   S
    C3344  O7935     0.54044      .   S
    C3331  O7935     0.54044      .   S
    C801   O7936     0.53995      .   S
    C803   O7936     0.53995      .   S
    C4360  O7937     0.70266      .   S
    C4365  O7937     0.70266      .   S
    C4360  O7938     0.69740      .   S
    C4361  O7938     0.69740      .   S
    C3045  O7939     0.70387      .   S
    C3040  O7939     0.70387      .   S
    C4304  O7940     0.54017      .   S
    C4291  O7940     0.54017      .   S
    C3333  O7941     0.70323      .   S
    C3328  O7941     0.70323      .   S
    C4664  O7942     0.54057      .   S
    C4651  O7942     0.54057      .   S
    C3405  O7943     0.70280      .   S
    C3404  O7943     0.70280      .   S
    C3309  O7944     0.70349      .   S
    C3304  O7944     0.70349      .   S
    C3235  O7945     0.70412      .   S
    C3234  O7945     0.70412      .   S
    C4293  O7946     0.70327      .   S
    C4288  O7946     0.70327      .   S
    C3043  O7947     0.70429      .   S
    C3042  O7947     0.70429      .   S
    C4365  O7948     0.70250      .   S
    C4364  O7948     0.70250      .   S
    C4581  O7949     0.70362      .   S
    C4576  O7949     0.70362      .   S
    C3307  O7950     0.70414      .   S
    C3306  O7950     0.70414      .   S
    C3415  O7951     0.54187      .   S
    C3401  O7951     0.54187      .   S
    C4653  O7952     0.70347      .   S
    C4648  O7952     0.70347      .   S
    C3331  O7953     0.70434      .   S
    C3330  O7953     0.70434      .   S
    C4579  O7954     0.70409      .   S
    C4578  O7954     0.70409      .   S
    C4291  O7955     0.70473      .   S
    C4290  O7955     0.70473      .   S
    C4375  O7956     0.54182      .   S
    C4361  O7956     0.54182      .   S
    C4651  O7957     0.70386      .   S
    C4650  O7957     0.70386      .   S
    C3401  O7958     0.70016      .   S
    C3402  O7958     0.70016      .   S
    C4114  O7959     0.54049      .   S
    C4102  O7959     0.54049      .   S
    C1029  O7960     0.70202      .   S
    C1183  O7960     0.70202      .   S
    C1029  O7961     0.74071      .   S
    C1028  O7961     0.74071      .   S
    C1137  O7962     0.70292      .   S
    C1183  O7962     0.70292      .   S
    C1137  O7963     0.74175      .   S
    C1136  O7963     0.74175      .   S
    C4361  O7964     0.70052      .   S
    C4362  O7964     0.70052      .   S
    C4596  O7965     0.54163      .   S
    C4585  O7965     0.54163      .   S
    C1095  O7966     0.70328      .   S
    C1201  O7966     0.70328      .   S
    C1095  O7967     0.74158      .   S
    C1094  O7967     0.74158      .   S
    C4595  O7968     0.54098      .   S
    C4583  O7968     0.54098      .   S
    C1059  O7969     0.70265      .   S
    C1198  O7969     0.70265      .   S
    C1059  O7970     0.74080      .   S
    C1058  O7970     0.74080      .   S
    C1993  O7971     0.70263      .   S
    C2139  O7971     0.70263      .   S
    C1993  O7972     0.74107      .   S
    C1992  O7972     0.74107      .   S
    C1101  O7973     0.70295      .   S
    C1198  O7973     0.70295      .   S
    C1101  O7974     0.74162      .   S
    C1100  O7974     0.74162      .   S
    C1065  O7975     0.70208      .   S
    C1201  O7975     0.70208      .   S
    C1065  O7976     0.74017      .   S
    C1064  O7976     0.74017      .   S
    C2059  O7977     0.70284      .   S
    C2154  O7977     0.70284      .   S
    C2059  O7978     0.74004      .   S
    C2058  O7978     0.74004      .   S
    C4098  O7979     0.74312      .   S
    C4102  O7979     0.74312      .   S
    C4098  O7980     0.70409      .   S
    C4099  O7980     0.70409      .   S
    C3130  O7981     0.54114      .   S
    C3118  O7981     0.54114      .   S
    C4186  O7982     0.54080      .   S
    C4174  O7982     0.54080      .   S
    C2095  O7983     0.70169      .   S
    C2139  O7983     0.70169      .   S
    C2095  O7984     0.74085      .   S
    C2094  O7984     0.74085      .   S
    C1023  O7985     0.70286      .   S
    C1180  O7985     0.70286      .   S
    C1023  O7986     0.74141      .   S
    C1022  O7986     0.74141      .   S
    C1131  O7987     0.70232      .   S
    C1180  O7987     0.70232      .   S
    C1131  O7988     0.74122      .   S
    C1130  O7988     0.74122      .   S
    C1027  O7989     0.63529      .   S
    C1028  O7989     0.63529      .   S
    C1027  O7990     0.92661      .   S
    C1167  O7990     0.92661      .   S
    C2023  O7991     0.70228      .   S
    C2154  O7991     0.70228      .   S
    C2023  O7992     0.74043      .   S
    C2022  O7992     0.74043      .   S
    C1093  O7993     0.63513      .   S
    C1094  O7993     0.63513      .   S
    C1093  O7994     0.92770      .   S
    C1167  O7994     0.92770  1_545   S
    C2065  O7995     0.70321      .   S
    C2157  O7995     0.70321      .   S
    C2065  O7996     0.74340      .   S
    C2064  O7996     0.74340      .   S
    C1987  O7997     0.70229      .   S
    C2136  O7997     0.70229      .   S
    C1987  O7998     0.74019      .   S
    C1986  O7998     0.74019      .   S
    C2866  O7999     0.54085      .   S
    C2854  O7999     0.54085      .   S
    C1135  O8000     0.63563      .   S
    C1136  O8000     0.63563      .   S
    C1135  O8001     0.92823      .   S
    C1177  O8001     0.92823  1_455   S
    C2029  O8002     0.70237      .   S
    C2157  O8002     0.70237      .   S
    C2029  O8003     0.74124      .   S
    C2028  O8003     0.74124      .   S
    C2101  O8004     0.70241      .   S
    C2136  O8004     0.70241      .   S
    C2101  O8005     0.73956      .   S
    C2100  O8005     0.73956      .   S
    C1057  O8006     0.63578      .   S
    C1058  O8006     0.63578      .   S
    C1057  O8007     0.92860      .   S
    C1177  O8007     0.92860      .   S
    C4100  O8008     0.69989      .   S
    C4099  O8008     0.69989      .   S
    C4100  O8009     0.54085      .   S
    C4113  O8009     0.54085      .   S
    C1991  O8010     0.63514      .   S
    C1992  O8010     0.63514      .   S
    C1991  O8011     0.92624      .   S
    C2131  O8011     0.92624      .   S
    C3114  O8012     0.74048      .   S
    C3118  O8012     0.74048      .   S
    C3114  O8013     0.70344      .   S
    C3115  O8013     0.70344      .   S
    C3906  O8014     0.74279      .   S
    C3910  O8014     0.74279      .   S
    C3906  O8015     0.70320      .   S
    C3907  O8015     0.70320      .   S
    C2057  O8016     0.63582      .   S
    C2058  O8016     0.63582      .   S
    C2057  O8017     0.92887      .   S
    C2131  O8017     0.92887      .   S
    C3116  O8018     0.54036      .   S
    C3129  O8018     0.54036      .   S
    C3116  O8019     0.69888      .   S
    C3115  O8019     0.69888      .   S
    C4170  O8020     0.74248      .   S
    C4174  O8020     0.74248      .   S
    C4170  O8021     0.70412      .   S
    C4171  O8021     0.70412      .   S
    C2850  O8022     0.74011      .   S
    C2854  O8022     0.74011      .   S
    C2850  O8023     0.70327      .   S
    C2851  O8023     0.70327      .   S
    C1099  O8024     0.63570      .   S
    C1100  O8024     0.63570      .   S
    C1099  O8025     0.93035      .   S
    C1165  O8025     0.93035  1_565   S
    C1063  O8026     0.63506      .   S
    C1064  O8026     0.63506      .   S
    C1063  O8027     0.92567      .   S
    C1179  O8027     0.92567      .   S
    C1021  O8028     0.63519      .   S
    C1022  O8028     0.63519      .   S
    C1021  O8029     0.92624      .   S
    C1165  O8029     0.92624      .   S
    C2852  O8030     0.54085      .   S
    C2865  O8030     0.54085      .   S
    C2852  O8031     0.69881      .   S
    C2851  O8031     0.69881      .   S
    C1129  O8032     0.63537      .   S
    C1130  O8032     0.63537      .   S
    C1129  O8033     0.92706      .   S
    C1179  O8033     0.92706  1_655   S
    C3908  O8034     0.53992      .   S
    C3921  O8034     0.53992      .   S
    C3908  O8035     0.69863      .   S
    C3907  O8035     0.69863      .   S
    C3404  O8036     0.54090      .   S
    C3417  O8036     0.54090      .   S
    C3404  O8037     0.69969      .   S
    C3403  O8037     0.69969      .   S
    C3978  O8038     0.74068      .   S
    C3982  O8038     0.74068      .   S
    C3978  O8039     0.70353      .   S
    C3979  O8039     0.70353      .   S
    C2093  O8040     0.63494      .   S
    C2094  O8040     0.63494      .   S
    C2093  O8041     0.92685      .   S
    C2135  O8041     0.92685      .   S
    C2063  O8042     0.63557      .   S
    C2064  O8042     0.63557      .   S
    C2063  O8043     0.93151      .   S
    C2129  O8043     0.93151      .   S
    C1985  O8044     0.63538      .   S
    C1986  O8044     0.63538      .   S
    C1985  O8045     0.92790      .   S
    C2129  O8045     0.92790      .   S
    C3232  O8046     0.54024      .   S
    C3246  O8046     0.54024      .   S
    C3232  O8047     0.69829      .   S
    C3233  O8047     0.69829      .   S
    C4364  O8048     0.54116      .   S
    C4377  O8048     0.54116      .   S
    C4364  O8049     0.70030      .   S
    C4363  O8049     0.70030      .   S
    C3980  O8050     0.54089      .   S
    C3993  O8050     0.54089      .   S
    C3980  O8051     0.69813      .   S
    C3979  O8051     0.69813      .   S
    C2027  O8052     0.63566      .   S
    C2028  O8052     0.63566      .   S
    C2027  O8053     0.92735      .   S
    C2135  O8053     0.92735      .   S
    C2021  O8054     0.63491      .   S
    C2022  O8054     0.63491      .   S
    C2021  O8055     0.92554      .   S
    C2133  O8055     0.92554      .   S
    C2922  O8056     0.74106      .   S
    C2926  O8056     0.74106      .   S
    C2922  O8057     0.70353      .   S
    C2923  O8057     0.70353      .   S
    C3328  O8058     0.54045      .   S
    C3342  O8058     0.54045      .   S
    C3328  O8059     0.69756      .   S
    C3329  O8059     0.69756      .   S
    C2099  O8060     0.63589      .   S
    C2100  O8060     0.63589      .   S
    C2099  O8061     0.92785      .   S
    C2133  O8061     0.92785      .   S
    C4172  O8062     0.69956      .   S
    C4171  O8062     0.69956      .   S
    C4172  O8063     0.54049      .   S
    C4185  O8063     0.54049      .   S
    C3922  O8064     0.54089      .   S
    C3910  O8064     0.54089      .   S
    C2924  O8065     0.54041      .   S
    C2937  O8065     0.54041      .   S
    C2924  O8066     0.69893      .   S
    C2923  O8066     0.69893      .   S
    C4119  O8067     0.54021      .   S
    C4109  O8067     0.54021      .   S
    C3040  O8068     0.54031      .   S
    C3054  O8068     0.54031      .   S
    C3040  O8069     0.69786      .   S
    C3041  O8069     0.69786      .   S
    C1183  O8070     0.54144      .   S
    C1184  O8070     0.54144      .   S
    C4288  O8071     0.54043      .   S
    C4302  O8071     0.54043      .   S
    C4288  O8072     0.69868      .   S
    C4289  O8072     0.69868      .   S
    C3234  O8073     0.70103      .   S
    C3233  O8073     0.70103      .   S
    C3234  O8074     0.74282      .   S
    C3238  O8074     0.74282      .   S
    C4102  O8075     0.67194      .   S
    C4103  O8075     0.67194      .   S
    C1201  O8076     0.54138      .   S
    C1202  O8076     0.54138      .   S
    C3304  O8077     0.54018      .   S
    C3318  O8077     0.54018      .   S
    C3304  O8078     0.69816      .   S
    C3305  O8078     0.69816      .   S
    C3994  O8079     0.54082      .   S
    C3982  O8079     0.54082      .   S
    C1028  O8080     0.63521      .   S
    C1026  O8080     0.63521      .   S
    C3135  O8081     0.54058      .   S
    C3125  O8081     0.54058      .   S
    C1198  O8082     0.54148      .   S
    C1199  O8082     0.54148      .   S
    C2139  O8083     0.54152      .   S
    C2140  O8083     0.54152      .   S
    C1094  O8084     0.63579      .   S
    C1092  O8084     0.63579      .   S
    C1136  O8085     0.63535      .   S
    C1134  O8085     0.63535      .   S
    C2938  O8086     0.54074      .   S
    C2926  O8086     0.54074      .   S
    C4191  O8087     0.54035      .   S
    C4181  O8087     0.54035      .   S
    C3042  O8088     0.70119      .   S
    C3041  O8088     0.70119      .   S
    C3042  O8089     0.74301      .   S
    C3046  O8089     0.74301      .   S
    C2871  O8090     0.54057      .   S
    C2861  O8090     0.54057      .   S
    C1180  O8091     0.54157      .   S
    C1181  O8091     0.54157      .   S
    C3402  O8092     0.70403      .   S
    C3403  O8092     0.70403      .   S
    C3402  O8093     0.74009      .   S
    C3406  O8093     0.74009      .   S
    C2154  O8094     0.54171      .   S
    C2155  O8094     0.54171      .   S
    C3059  O8095     0.54081      .   S
    C3047  O8095     0.54081      .   S
    C1058  O8096     0.63480      .   S
    C1056  O8096     0.63480      .   S
    C1992  O8097     0.63537      .   S
    C1990  O8097     0.63537      .   S
    C3330  O8098     0.70121      .   S
    C3329  O8098     0.70121      .   S
    C3330  O8099     0.74246      .   S
    C3334  O8099     0.74246      .   S
    C2157  O8100     0.54155      .   S
    C2158  O8100     0.54155      .   S
    C3251  O8101     0.54078      .   S
    C3239  O8101     0.54078      .   S
    C2058  O8102     0.63446      .   S
    C2056  O8102     0.63446      .   S
    C4576  O8103     0.54023      .   S
    C4590  O8103     0.54023      .   S
    C4576  O8104     0.69811      .   S
    C4577  O8104     0.69811      .   S
    C2136  O8105     0.54143      .   S
    C2137  O8105     0.54143      .   S
    C4099  O8106     0.54052      .   S
    C4112  O8106     0.54052      .   S
    C3306  O8107     0.70073      .   S
    C3305  O8107     0.70073      .   S
    C3306  O8108     0.74213      .   S
    C3310  O8108     0.74213      .   S
    C3118  O8109     0.67028      .   S
    C3119  O8109     0.67028      .   S
    C1100  O8110     0.63502      .   S
    C1098  O8110     0.63502      .   S
    C4290  O8111     0.70168      .   S
    C4289  O8111     0.70168      .   S
    C4290  O8112     0.74421      .   S
    C4294  O8112     0.74421      .   S
    C4362  O8113     0.70414      .   S
    C4363  O8113     0.70414      .   S
    C4362  O8114     0.74033      .   S
    C4366  O8114     0.74033      .   S
    C1064  O8115     0.63508      .   S
    C1062  O8115     0.63508      .   S
    C3910  O8116     0.67131      .   S
    C3911  O8116     0.67131      .   S
    C4648  O8117     0.54050      .   S
    C4662  O8117     0.54050      .   S
    C4648  O8118     0.69919      .   S
    C4649  O8118     0.69919      .   S
    C1022  O8119     0.63593      .   S
    C1020  O8119     0.63593      .   S
    C4174  O8120     0.67124      .   S
    C4175  O8120     0.67124      .   S
    C2094  O8121     0.63515      .   S
    C2092  O8121     0.63515      .   S
    C3115  O8122     0.54046      .   S
    C3128  O8122     0.54046      .   S
    C1130  O8123     0.63509      .   S
    C1128  O8123     0.63509      .   S
    C3323  O8124     0.54057      .   S
    C3311  O8124     0.54057      .   S
    C2854  O8125     0.67046      .   S
    C2855  O8125     0.67046      .   S
    C2064  O8126     0.63544      .   S
    C2062  O8126     0.63544      .   S
    C1986  O8127     0.63490      .   S
    C1984  O8127     0.63490      .   S
    C2022  O8128     0.63585      .   S
    C2020  O8128     0.63585      .   S
    C2028  O8129     0.63527      .   S
    C2026  O8129     0.63527      .   S
    C3907  O8130     0.54064      .   S
    C3920  O8130     0.54064      .   S
    C2851  O8131     0.54065      .   S
    C2864  O8131     0.54065      .   S
    C2100  O8132     0.63478      .   S
    C2098  O8132     0.63478      .   S
    C4578  O8133     0.70049      .   S
    C4577  O8133     0.70049      .   S
    C4578  O8134     0.74186      .   S
    C4582  O8134     0.74186      .   S
    C1167  O8135     0.92725      .   S
    C1141  O8135     0.92725      .   S
    C1167  O8136     0.92557  1_545   S
    C1075  O8136     0.92557      .   S
    C3982  O8137     0.66998      .   S
    C3983  O8137     0.66998      .   S
    C4307  O8138     0.54116      .   S
    C4295  O8138     0.54116      .   S
    C1177  O8139     0.92874  1_455   S
    C1033  O8139     0.92874      .   S
    C1177  O8140     0.92819      .   S
    C1111  O8140     0.92819      .   S
    C3403  O8141     0.54102      .   S
    C3416  O8141     0.54102      .   S
    C3979  O8142     0.54069      .   S
    C3992  O8142     0.54069      .   S
    C4171  O8143     0.54047      .   S
    C4184  O8143     0.54047      .   S
    C4650  O8144     0.70150      .   S
    C4649  O8144     0.70150      .   S
    C4650  O8145     0.74299      .   S
    C4654  O8145     0.74299      .   S
    C3347  O8146     0.54046      .   S
    C3335  O8146     0.54046      .   S
    C4363  O8147     0.54105      .   S
    C4376  O8147     0.54105      .   S
    C2926  O8148     0.67044      .   S
    C2927  O8148     0.67044      .   S
    C3233  O8149     0.54169      .   S
    C3247  O8149     0.54169      .   S
    C2131  O8150     0.92585      .   S
    C2039  O8150     0.92585      .   S
    C2131  O8151     0.92869      .   S
    C2105  O8151     0.92869      .   S
    C2923  O8152     0.54081      .   S
    C2936  O8152     0.54081      .   S
    C4585  O8153     0.69779      .   S
    C4586  O8153     0.69779      .   S
    C4585  O8154     0.70127      .   S
    C4584  O8154     0.70127      .   S
    C3329  O8155     0.54174      .   S
    C3343  O8155     0.54174      .   S
    C4583  O8156     0.67063      .   S
    C4582  O8156     0.67063      .   S
    C4583  O8157     0.74174      .   S
    C4584  O8157     0.74174      .   S
    C4667  O8158     0.54101      .   S
    C4655  O8158     0.54101      .   S
    C1179  O8159     0.92731      .   S
    C1105  O8159     0.92731      .   S
    C1179  O8160     0.92596  1_655   S
    C1039  O8160     0.92596      .   S
    C4597  O8161     0.54142      .   S
    C4586  O8161     0.54142      .   S
    C1165  O8162     0.92569  1_565   S
    C1069  O8162     0.92569      .   S
    C1165  O8163     0.92958      .   S
    C1147  O8163     0.92958      .   S
    C4289  O8164     0.54138      .   S
    C4303  O8164     0.54138      .   S
    C2129  O8165     0.92750      .   S
    C2033  O8165     0.92750      .   S
    C2129  O8166     0.93116      .   S
    C2111  O8166     0.93116      .   S
    C3041  O8167     0.54149      .   S
    C3055  O8167     0.54149      .   S
    C2135  O8168     0.92818      .   S
    C2003  O8168     0.92818      .   S
    C2135  O8169     0.92743      .   S
    C2069  O8169     0.92743      .   S
    C2133  O8170     0.92632      .   S
    C1997  O8170     0.92632      .   S
    C2133  O8171     0.92787      .   S
    C2075  O8171     0.92787      .   S
    C3305  O8172     0.54150      .   S
    C3319  O8172     0.54150      .   S
    C3239  O8173     0.67162      .   S
    C3238  O8173     0.67162      .   S
    C3239  O8174     0.74373      .   S
    C3240  O8174     0.74373      .   S
    C3238  O8175     0.54065      .   S
    C3250  O8175     0.54065      .   S
    C3047  O8176     0.67148      .   S
    C3046  O8176     0.67148      .   S
    C3047  O8177     0.74364      .   S
    C3048  O8177     0.74364      .   S
    C3406  O8178     0.53937      .   S
    C3418  O8178     0.53937      .   S
    C3406  O8179     0.67021      .   S
    C3407  O8179     0.67021      .   S
    C3046  O8180     0.54084      .   S
    C3058  O8180     0.54084      .   S
    C3311  O8181     0.67126      .   S
    C3310  O8181     0.67126      .   S
    C3311  O8182     0.74247      .   S
    C3312  O8182     0.74247      .   S
    C4118  O8183     0.54149      .   S
    C4108  O8183     0.54149      .   S
    C4366  O8184     0.53989      .   S
    C4378  O8184     0.53989      .   S
    C4366  O8185     0.67076      .   S
    C4367  O8185     0.67076      .   S
    C4577  O8186     0.54183      .   S
    C4591  O8186     0.54183      .   S
    C3334  O8187     0.67134      .   S
    C3335  O8187     0.67134      .   S
    C3334  O8188     0.54037      .   S
    C3346  O8188     0.54037      .   S
    C4379  O8189     0.54118      .   S
    C4367  O8189     0.54118      .   S
    C4649  O8190     0.54162      .   S
    C4663  O8190     0.54162      .   S
    C4295  O8191     0.67221      .   S
    C4294  O8191     0.67221      .   S
    C4295  O8192     0.74475      .   S
    C4296  O8192     0.74475      .   S
    C3310  O8193     0.54032      .   S
    C3322  O8193     0.54032      .   S
    C4294  O8194     0.54067      .   S
    C4306  O8194     0.54067      .   S
    C3335  O8195     0.74370      .   S
    C3336  O8195     0.74370      .   S
    C4109  O8196     0.69975      .   S
    C4108  O8196     0.69975      .   S
    C4109  O8197     0.70479      .   S
    C4104  O8197     0.70479      .   S
    C3419  O8198     0.54124      .   S
    C3407  O8198     0.54124      .   S
    C3134  O8199     0.54172      .   S
    C3124  O8199     0.54172      .   S
    C4190  O8200     0.54158      .   S
    C4180  O8200     0.54158      .   S
    C3911  O8201     0.54081      .   S
    C3923  O8201     0.54081      .   S
    C3911  O8202     0.74251      .   S
    C3912  O8202     0.74251      .   S
    C2870  O8203     0.54149      .   S
    C2860  O8203     0.54149      .   S
    C4655  O8204     0.67163      .   S
    C4654  O8204     0.67163      .   S
    C4655  O8205     0.74331      .   S
    C4656  O8205     0.74331      .   S
    C4582  O8206     0.54090      .   S
    C4594  O8206     0.54090      .   S
    C4367  O8207     0.74327      .   S
    C4368  O8207     0.74327      .   S
    C3983  O8208     0.54125      .   S
    C3995  O8208     0.54125      .   S
    C3983  O8209     0.74080      .   S
    C3984  O8209     0.74080      .   S
    C4654  O8210     0.54083      .   S
    C4666  O8210     0.54083      .   S
    C3125  O8211     0.69782      .   S
    C3124  O8211     0.69782      .   S
    C3125  O8212     0.70418      .   S
    C3120  O8212     0.70418      .   S
    C3407  O8213     0.74328      .   S
    C3408  O8213     0.74328      .   S
    C4586  O8214     0.70284      .   S
    C4587  O8214     0.70284      .   S
    C1026  O8215     0.92664      .   S
    C1166  O8215     0.92664      .   S
    C1092  O8216     0.92737      .   S
    C1166  O8216     0.92737  1_545   S
    C4181  O8217     0.69907      .   S
    C4180  O8217     0.69907      .   S
    C4181  O8218     0.70478      .   S
    C4176  O8218     0.70478      .   S
    C1134  O8219     0.92714      .   S
    C1176  O8219     0.92714  1_455   S
    C2861  O8220     0.69763      .   S
    C2860  O8220     0.69763      .   S
    C2861  O8221     0.70406      .   S
    C2856  O8221     0.70406      .   S
    C1056  O8222     0.92453      .   S
    C1176  O8222     0.92453      .   S
    C1990  O8223     0.92733      .   S
    C2130  O8223     0.92733      .   S
    C4584  O8224     0.70477      .   S
    C4589  O8224     0.70477      .   S
    C2927  O8225     0.54099      .   S
    C2939  O8225     0.54099      .   S
    C2927  O8226     0.74090      .   S
    C2928  O8226     0.74090      .   S
    C2056  O8227     0.92297      .   S
    C2130  O8227     0.92297      .   S
    C3060  O8228     0.54147      .   S
    C3049  O8228     0.54147      .   S
    C1098  O8229     0.92480      .   S
    C1164  O8229     0.92480  1_565   S
    C3252  O8230     0.54153      .   S
    C3241  O8230     0.54153      .   S
    C1020  O8231     0.92906      .   S
    C1164  O8231     0.92906      .   S
    C1062  O8232     0.92583      .   S
    C1178  O8232     0.92583      .   S
    C4103  O8233     0.74387      .   S
    C4104  O8233     0.74387      .   S
    C4103  O8234     0.54072      .   S
    C4115  O8234     0.54072      .   S
    C2092  O8235     0.92582      .   S
    C2134  O8235     0.92582      .   S
    C1128  O8236     0.92656      .   S
    C1178  O8236     0.92656  1_655   S
    C4383  O8237     0.53970      .   S
    C4373  O8237     0.53970      .   S
    C2062  O8238     0.92737      .   S
    C2128  O8238     0.92737      .   S
    C3324  O8239     0.54155      .   S
    C3313  O8239     0.54155      .   S
    C1984  O8240     0.92387      .   S
    C2128  O8240     0.92387      .   S
    C3927  O8241     0.54027      .   S
    C3917  O8241     0.54027      .   S
    C2026  O8242     0.92708      .   S
    C2134  O8242     0.92708      .   S
    C2020  O8243     0.92749      .   S
    C2132  O8243     0.92749      .   S
    C3240  O8244     0.70212      .   S
    C3241  O8244     0.70212      .   S
    C3240  O8245     0.70460      .   S
    C3245  O8245     0.70460      .   S
    C1141  O8246     0.63545      .   S
    C1142  O8246     0.63545      .   S
    C2098  O8247     0.92324      .   S
    C2132  O8247     0.92324      .   S
    C3048  O8248     0.70210      .   S
    C3049  O8248     0.70210      .   S
    C3048  O8249     0.70482      .   S
    C3053  O8249     0.70482      .   S
    C1075  O8250     0.63543      .   S
    C1076  O8250     0.63543      .   S
    C1033  O8251     0.63575      .   S
    C1034  O8251     0.63575      .   S
    C3119  O8252     0.74081      .   S
    C3120  O8252     0.74081      .   S
    C3119  O8253     0.54137      .   S
    C3131  O8253     0.54137      .   S
    C1111  O8254     0.63551      .   S
    C1112  O8254     0.63551      .   S
    C4308  O8255     0.54151      .   S
    C4297  O8255     0.54151      .   S
    C3423  O8256     0.53933      .   S
    C3413  O8256     0.53933      .   S
    C3999  O8257     0.54020      .   S
    C3989  O8257     0.54020      .   S
    C4108  O8258     0.70217      .   S
    C4107  O8258     0.70217      .   S
    C2039  O8259     0.63515      .   S
    C2040  O8259     0.63515      .   S
    C3312  O8260     0.70213      .   S
    C3313  O8260     0.70213      .   S
    C3312  O8261     0.70462      .   S
    C3317  O8261     0.70462      .   S
    C2105  O8262     0.63540      .   S
    C2106  O8262     0.63540      .   S
    C4175  O8263     0.74312      .   S
    C4176  O8263     0.74312      .   S
    C4175  O8264     0.54074      .   S
    C4187  O8264     0.54074      .   S
    C2855  O8265     0.74064      .   S
    C2856  O8265     0.74064      .   S
    C2855  O8266     0.54100      .   S
    C2867  O8266     0.54100      .   S
    C3348  O8267     0.54165      .   S
    C3337  O8267     0.54165      .   S
    C1105  O8268     0.63507      .   S
    C1106  O8268     0.63507      .   S
    C3912  O8269     0.70469      .   S
    C3917  O8269     0.70469      .   S
    C3912  O8270     0.70166      .   S
    C3913  O8270     0.70166      .   S
    C4668  O8271     0.54179      .   S
    C4657  O8271     0.54179      .   S
    C4296  O8272     0.70276      .   S
    C4297  O8272     0.70276      .   S
    C4296  O8273     0.70501      .   S
    C4301  O8273     0.70501      .   S
    C1069  O8274     0.63521      .   S
    C1070  O8274     0.63521      .   S
    C3241  O8275     0.69900      .   S
    C3242  O8275     0.69900      .   S
    C3049  O8276     0.69922      .   S
    C3050  O8276     0.69922      .   S
    C3255  O8277     0.54039      .   S
    C3245  O8277     0.54039      .   S
    C1039  O8278     0.63543      .   S
    C1040  O8278     0.63543      .   S
    C3336  O8279     0.70195      .   S
    C3337  O8279     0.70195      .   S
    C3336  O8280     0.70523      .   S
    C3341  O8280     0.70523      .   S
    C2003  O8281     0.63570      .   S
    C2004  O8281     0.63570      .   S
    C2943  O8282     0.54057      .   S
    C2933  O8282     0.54057      .   S
    C3124  O8283     0.70173      .   S
    C3123  O8283     0.70173      .   S
    C3984  O8284     0.70466      .   S
    C3989  O8284     0.70466      .   S
    C3984  O8285     0.70157      .   S
    C3985  O8285     0.70157      .   S
    C4368  O8286     0.70537      .   S
    C4373  O8286     0.70537      .   S
    C4368  O8287     0.70165      .   S
    C4369  O8287     0.70165      .   S
    C1147  O8288     0.63601      .   S
    C1148  O8288     0.63601      .   S
    C3917  O8289     0.70021      .   S
    C3916  O8289     0.70021      .   S
    C2033  O8290     0.63543      .   S
    C2034  O8290     0.63543      .   S
    C3063  O8291     0.54035      .   S
    C3053  O8291     0.54035      .   S
    C2111  O8292     0.63632      .   S
    C2112  O8292     0.63632      .   S
    C3313  O8293     0.69888      .   S
    C3314  O8293     0.69888      .   S
    C4180  O8294     0.70209      .   S
    C4179  O8294     0.70209      .   S
    C2860  O8295     0.70198      .   S
    C2859  O8295     0.70198      .   S
    C2069  O8296     0.63543      .   S
    C2070  O8296     0.63543      .   S
    C1997  O8297     0.63520      .   S
    C1998  O8297     0.63520      .   S
    C2075  O8298     0.63561      .   S
    C2076  O8298     0.63561      .   S
    C4373  O8299     0.69979      .   S
    C4372  O8299     0.69979      .   S
    C3408  O8300     0.70579      .   S
    C3413  O8300     0.70579      .   S
    C3408  O8301     0.70180      .   S
    C3409  O8301     0.70180      .   S
    C1079  O8302     0.54171      .   S
    C1078  O8302     0.54171      .   S
    C4656  O8303     0.70252      .   S
    C4657  O8303     0.70252      .   S
    C4656  O8304     0.70438      .   S
    C4661  O8304     0.70438      .   S
    C4297  O8305     0.69941      .   S
    C4298  O8305     0.69941      .   S
    C3989  O8306     0.69921      .   S
    C3988  O8306     0.69921      .   S
    C1145  O8307     0.54156      .   S
    C1144  O8307     0.54156      .   S
    C3245  O8308     0.69916      .   S
    C3244  O8308     0.69916      .   S
    C3327  O8309     0.54041      .   S
    C3317  O8309     0.54041      .   S
    C4104  O8310     0.70234      .   S
    C4105  O8310     0.70234      .   S
    C4311  O8311     0.54030      .   S
    C4301  O8311     0.54030      .   S
    C1037  O8312     0.54158      .   S
    C1036  O8312     0.54158      .   S
    C1115  O8313     0.54180      .   S
    C1114  O8313     0.54180      .   S
    C3413  O8314     0.69910      .   S
    C3412  O8314     0.69910      .   S
    C2928  O8315     0.70464      .   S
    C2933  O8315     0.70464      .   S
    C2928  O8316     0.70103      .   S
    C2929  O8316     0.70103      .   S
    C3053  O8317     0.69926      .   S
    C3052  O8317     0.69926      .   S
    C3351  O8318     0.54009      .   S
    C3341  O8318     0.54009      .   S
    C3337  O8319     0.69892      .   S
    C3338  O8319     0.69892      .   S
    C2109  O8320     0.54165      .   S
    C2108  O8320     0.54165      .   S
    C2043  O8321     0.54189      .   S
    C2042  O8321     0.54189      .   S
    C4657  O8322     0.69890      .   S
    C4658  O8322     0.69890      .   S
    C2007  O8323     0.54154      .   S
    C2006  O8323     0.54154      .   S
    C1073  O8324     0.54173      .   S
    C1072  O8324     0.54173      .   S
    C2933  O8325     0.69925      .   S
    C2932  O8325     0.69925      .   S
    C3317  O8326     0.69846      .   S
    C3316  O8326     0.69846      .   S
    C1109  O8327     0.54167      .   S
    C1108  O8327     0.54167      .   S
    C3120  O8328     0.70185      .   S
    C3121  O8328     0.70185      .   S
    C4301  O8329     0.69938      .   S
    C4300  O8329     0.69938      .   S
    C3924  O8330     0.54196      .   S
    C3913  O8330     0.54196      .   S
    C2037  O8331     0.54137      .   S
    C2036  O8331     0.54137      .   S
    C4176  O8332     0.70230      .   S
    C4177  O8332     0.70230      .   S
    C1043  O8333     0.54181      .   S
    C1042  O8333     0.54181      .   S
    C2856  O8334     0.70161      .   S
    C2857  O8334     0.70161      .   S
    C3996  O8335     0.54175      .   S
    C3985  O8335     0.54175      .   S
    C3341  O8336     0.69878      .   S
    C3340  O8336     0.69878      .   S
    C3913  O8337     0.69789      .   S
    C3914  O8337     0.69789      .   S
    C2073  O8338     0.54172      .   S
    C2072  O8338     0.54172      .   S
    C4671  O8339     0.54033      .   S
    C4661  O8339     0.54033      .   S
    C2001  O8340     0.54158      .   S
    C2000  O8340     0.54158      .   S
    C4380  O8341     0.54165      .   S
    C4369  O8341     0.54165      .   S
    C3985  O8342     0.69701      .   S
    C3986  O8342     0.69701      .   S
    C2115  O8343     0.54168      .   S
    C2114  O8343     0.54168      .   S
    C3420  O8344     0.54167      .   S
    C3409  O8344     0.54167      .   S
    C4369  O8345     0.69791      .   S
    C4370  O8345     0.69791      .   S
    C1151  O8346     0.54159      .   S
    C1150  O8346     0.54159      .   S
    C2079  O8347     0.54163      .   S
    C2078  O8347     0.54163      .   S
    C3409  O8348     0.69730      .   S
    C3410  O8348     0.69730      .   S
    C2940  O8349     0.54179      .   S
    C2929  O8349     0.54179      .   S
    C1166  O8350     0.92761      .   S
    C1140  O8350     0.92761      .   S
    C1166  O8351     0.92689  1_545   S
    C1074  O8351     0.92689      .   S
    C3050  O8352     0.54150      .   S
    C3061  O8352     0.54150      .   S
    C3050  O8353     0.70275      .   S
    C3051  O8353     0.70275      .   S
    C4661  O8354     0.69941      .   S
    C4660  O8354     0.69941      .   S
    C3916  O8355     0.54162      .   S
    C3926  O8355     0.54162      .   S
    C3916  O8356     0.70240      .   S
    C3915  O8356     0.70240      .   S
    C3242  O8357     0.54165      .   S
    C3253  O8357     0.54165      .   S
    C3242  O8358     0.70242      .   S
    C3243  O8358     0.70242      .   S
    C1176  O8359     0.92447  1_455   S
    C1032  O8359     0.92447      .   S
    C1176  O8360     0.92702      .   S
    C1110  O8360     0.92702      .   S
    C4372  O8361     0.54144      .   S
    C4382  O8361     0.54144      .   S
    C4372  O8362     0.70189      .   S
    C4371  O8362     0.70189      .   S
    C2929  O8363     0.69765      .   S
    C2930  O8363     0.69765      .   S
    C3314  O8364     0.54145      .   S
    C3325  O8364     0.54145      .   S
    C3314  O8365     0.70213      .   S
    C3315  O8365     0.70213      .   S
    C2130  O8366     0.92696      .   S
    C2038  O8366     0.92696      .   S
    C2130  O8367     0.92307      .   S
    C2104  O8367     0.92307      .   S
    C3988  O8368     0.54146      .   S
    C3998  O8368     0.54146      .   S
    C3988  O8369     0.70176      .   S
    C3987  O8369     0.70176      .   S
    C1164  O8370     0.92930  1_565   S
    C1068  O8370     0.92930      .   S
    C1164  O8371     0.92479      .   S
    C1146  O8371     0.92479      .   S
    C1178  O8372     0.92652      .   S
    C1104  O8372     0.92652      .   S
    C1178  O8373     0.92552  1_655   S
    C1038  O8373     0.92552      .   S
    C4298  O8374     0.54155      .   S
    C4309  O8374     0.54155      .   S
    C4298  O8375     0.70235      .   S
    C4299  O8375     0.70235      .   S
    C3412  O8376     0.54152      .   S
    C3422  O8376     0.54152      .   S
    C3412  O8377     0.70118      .   S
    C3411  O8377     0.70118      .   S
    C2128  O8378     0.92449      .   S
    C2032  O8378     0.92449      .   S
    C2128  O8379     0.92712      .   S
    C2110  O8379     0.92712      .   S
    C2134  O8380     0.92700      .   S
    C2002  O8380     0.92700      .   S
    C2134  O8381     0.92613      .   S
    C2068  O8381     0.92613      .   S
    C3244  O8382     0.70248      .   S
    C3243  O8382     0.70248      .   S
    C3244  O8383     0.54166      .   S
    C3254  O8383     0.54166      .   S
    C3052  O8384     0.70244      .   S
    C3051  O8384     0.70244      .   S
    C3052  O8385     0.54140      .   S
    C3062  O8385     0.54140      .   S
    C2132  O8386     0.92815      .   S
    C1996  O8386     0.92815      .   S
    C2132  O8387     0.92368      .   S
    C2074  O8387     0.92368      .   S
    C1142  O8388     0.63536      .   S
    C1140  O8388     0.63536      .   S
    C1142  O8389     0.74141      .   S
    C1143  O8389     0.74141      .   S
    C3338  O8390     0.54167      .   S
    C3349  O8390     0.54167      .   S
    C3338  O8391     0.70192      .   S
    C3339  O8391     0.70192      .   S
    C1076  O8392     0.63522      .   S
    C1074  O8392     0.63522      .   S
    C1076  O8393     0.74043      .   S
    C1077  O8393     0.74043      .   S
    C2932  O8394     0.54122      .   S
    C2942  O8394     0.54122      .   S
    C2932  O8395     0.70217      .   S
    C2931  O8395     0.70217      .   S
    C4658  O8396     0.54162      .   S
    C4669  O8396     0.54162      .   S
    C4658  O8397     0.70196      .   S
    C4659  O8397     0.70196      .   S
    C4587  O8398     0.74169      .   S
    C1209  O8398     0.74169      .   S
    C4587  O8399     0.70199      .   S
    C4588  O8399     0.70199      .   S
    C1034  O8400     0.63505      .   S
    C1032  O8400     0.63505      .   S
    C1034  O8401     0.74065      .   S
    C1035  O8401     0.74065      .   S
    C1112  O8402     0.63562      .   S
    C1110  O8402     0.63562      .   S
    C1112  O8403     0.74160      .   S
    C1113  O8403     0.74160      .   S
    C2040  O8404     0.63509      .   S
    C2038  O8404     0.63509      .   S
    C2040  O8405     0.74070      .   S
    C2041  O8405     0.74070      .   S
    C3316  O8406     0.70185      .   S
    C3315  O8406     0.70185      .   S
    C3316  O8407     0.54154      .   S
    C3326  O8407     0.54154      .   S
    C2106  O8408     0.63469      .   S
    C2104  O8408     0.63469      .   S
    C2106  O8409     0.73973      .   S
    C2107  O8409     0.73973      .   S
    C4300  O8410     0.70242      .   S
    C4299  O8410     0.70242      .   S
    C4300  O8411     0.54150      .   S
    C4310  O8411     0.54150      .   S
    C3914  O8412     0.70256      .   S
    C3915  O8412     0.70256      .   S
    C3914  O8413     0.54138      .   S
    C3925  O8413     0.54138      .   S
    C1078  O8414     0.70147      .   S
    C1077  O8414     0.70147      .   S
    C1078  O8415     0.70143      .   S
    C1209  O8415     0.70143      .   S
    C1106  O8416     0.63554      .   S
    C1104  O8416     0.63554      .   S
    C1106  O8417     0.74086      .   S
    C1107  O8417     0.74086      .   S
    C4589  O8418     0.54064      .   S
    C4599  O8418     0.54064      .   S
    C4589  O8419     0.69954      .   S
    C4588  O8419     0.69954      .   S
    C3243  O8420     0.74232      .   S
    C1188  O8420     0.74232      .   S
    C1070  O8421     0.63566      .   S
    C1068  O8421     0.63566      .   S
    C1070  O8422     0.74183      .   S
    C1071  O8422     0.74183      .   S
    C3051  O8423     0.74324      .   S
    C1197  O8423     0.74324      .   S
    C1144  O8424     0.70230      .   S
    C1143  O8424     0.70230      .   S
    C1144  O8425     0.70230      .   S
    C1197  O8425     0.70230      .   S
    C3986  O8426     0.70208      .   S
    C3987  O8426     0.70208      .   S
    C3986  O8427     0.54156      .   S
    C3997  O8427     0.54156      .   S
    C3340  O8428     0.70171      .   S
    C3339  O8428     0.70171      .   S
    C3340  O8429     0.54184      .   S
    C3350  O8429     0.54184      .   S
    C1036  O8430     0.70204      .   S
    C1035  O8430     0.70204      .   S
    C1036  O8431     0.70233      .   S
    C1188  O8431     0.70233      .   S
    C4370  O8432     0.70300      .   S
    C4371  O8432     0.70300      .   S
    C4370  O8433     0.54152      .   S
    C4381  O8433     0.54152      .   S
    C1040  O8434     0.63504      .   S
    C1038  O8434     0.63504      .   S
    C1040  O8435     0.74012      .   S
    C1041  O8435     0.74012      .   S
    C3915  O8436     0.74285      .   S
    C1212  O8436     0.74285      .   S
    C2004  O8437     0.63529      .   S
    C2002  O8437     0.63529      .   S
    C2004  O8438     0.74139      .   S
    C2005  O8438     0.74139      .   S
    C1114  O8439     0.70349      .   S
    C1113  O8439     0.70349      .   S
    C1114  O8440     0.70276      .   S
    C1212  O8440     0.70276      .   S
    C2034  O8441     0.63479      .   S
    C2032  O8441     0.63479      .   S
    C2034  O8442     0.74003      .   S
    C2035  O8442     0.74003      .   S
    C1148  O8443     0.63477      .   S
    C1146  O8443     0.63477      .   S
    C1148  O8444     0.74133      .   S
    C1149  O8444     0.74133      .   S
    C2112  O8445     0.63513      .   S
    C2110  O8445     0.63513      .   S
    C2112  O8446     0.74266      .   S
    C2113  O8446     0.74266      .   S
    C3315  O8447     0.74129      .   S
    C2165  O8447     0.74129      .   S
    C3410  O8448     0.70198      .   S
    C3411  O8448     0.70198      .   S
    C3410  O8449     0.54178      .   S
    C3421  O8449     0.54178      .   S
    C2042  O8450     0.70196      .   S
    C2041  O8450     0.70196      .   S
    C2042  O8451     0.70155      .   S
    C2165  O8451     0.70155      .   S
    C2070  O8452     0.63501      .   S
    C2068  O8452     0.63501      .   S
    C2070  O8453     0.74095      .   S
    C2071  O8453     0.74095      .   S
    C1998  O8454     0.63568      .   S
    C1996  O8454     0.63568      .   S
    C1998  O8455     0.74141      .   S
    C1999  O8455     0.74141      .   S
    C2108  O8456     0.70238      .   S
    C2107  O8456     0.70238      .   S
    C2108  O8457     0.70168      .   S
    C2153  O8457     0.70168      .   S
    C3987  O8458     0.74006      .   S
    C2153  O8458     0.74006      .   S
    C4371  O8459     0.74289      .   S
    C2147  O8459     0.74289      .   S
    C2076  O8460     0.63450      .   S
    C2074  O8460     0.63450      .   S
    C2076  O8461     0.74022      .   S
    C2077  O8461     0.74022      .   S
    C4299  O8462     0.74312      .   S
    C1206  O8462     0.74312      .   S
    C1108  O8463     0.70306      .   S
    C1107  O8463     0.70306      .   S
    C1108  O8464     0.70284      .   S
    C1215  O8464     0.70284      .   S
    C1072  O8465     0.70287      .   S
    C1071  O8465     0.70287      .   S
    C1072  O8466     0.70245      .   S
    C1206  O8466     0.70245      .   S
    C4660  O8467     0.70284      .   S
    C4659  O8467     0.70284      .   S
    C4660  O8468     0.54168      .   S
    C4670  O8468     0.54168      .   S
    C2006  O8469     0.70384      .   S
    C2005  O8469     0.70384      .   S
    C2006  O8470     0.70314      .   S
    C2147  O8470     0.70314      .   S
    C2930  O8471     0.70293      .   S
    C2931  O8471     0.70293      .   S
    C2930  O8472     0.54133      .   S
    C2941  O8472     0.54133      .   S
    C4107  O8473     0.74283      .   S
    C1215  O8473     0.74283      .   S
    C4107  O8474     0.70233      .   S
    C4106  O8474     0.70233      .   S
    C3411  O8475     0.74061      .   S
    C2162  O8475     0.74061      .   S
    C2036  O8476     0.70335      .   S
    C2035  O8476     0.70335      .   S
    C2036  O8477     0.70234      .   S
    C2162  O8477     0.70234      .   S
    C3339  O8478     0.74125      .   S
    C1191  O8478     0.74125      .   S
    C1042  O8479     0.70166      .   S
    C1041  O8479     0.70166      .   S
    C1042  O8480     0.70185      .   S
    C1191  O8480     0.70185      .   S
    C2931  O8481     0.74162      .   S
    C2171  O8481     0.74162      .   S
    C2072  O8482     0.70312      .   S
    C2071  O8482     0.70312      .   S
    C2072  O8483     0.70200      .   S
    C2171  O8483     0.70200      .   S
    C2000  O8484     0.70241      .   S
    C1999  O8484     0.70241      .   S
    C2000  O8485     0.70280      .   S
    C2144  O8485     0.70280      .   S
    C4659  O8486     0.74280      .   S
    C2144  O8486     0.74280      .   S
    C2114  O8487     0.70288      .   S
    C2113  O8487     0.70288      .   S
    C2114  O8488     0.70233      .   S
    C2150  O8488     0.70233      .   S
    C2078  O8489     0.70196      .   S
    C2077  O8489     0.70196      .   S
    C2078  O8490     0.70188      .   S
    C2168  O8490     0.70188      .   S
    C1150  O8491     0.70194      .   S
    C1149  O8491     0.70194      .   S
    C1150  O8492     0.70152      .   S
    C1194  O8492     0.70152      .   S
    C3123  O8493     0.74000      .   S
    C2168  O8493     0.74000      .   S
    C3123  O8494     0.70206      .   S
    C3122  O8494     0.70206      .   S
    C4179  O8495     0.74230      .   S
    C2150  O8495     0.74230      .   S
    C4179  O8496     0.70249      .   S
    C4178  O8496     0.70249      .   S
    C2859  O8497     0.74012      .   S
    C1194  O8497     0.74012      .   S
    C2859  O8498     0.70206      .   S
    C2858  O8498     0.70206      .   S
    C1143  O8499     0.70265      .   S
    C1195  O8499     0.70265      .   S
    C1077  O8500     0.70241      .   S
    C1207  O8500     0.70241      .   S
    C4105  O8501     0.69932      .   S
    C4106  O8501     0.69932      .   S
    C4105  O8502     0.54160      .   S
    C4116  O8502     0.54160      .   S
    C1209  O8503     0.70240      .   S
    C1120  O8503     0.70240      .   S
    C1035  O8504     0.70276      .   S
    C1186  O8504     0.70276      .   S
    C1113  O8505     0.70335      .   S
    C1210  O8505     0.70335      .   S
    C1197  O8506     0.70342      .   S
    C1054  O8506     0.70342      .   S
    C1188  O8507     0.70282      .   S
    C1162  O8507     0.70282      .   S
    C4588  O8508     0.54154      .   S
    C4598  O8508     0.54154      .   S
    C2041  O8509     0.70254      .   S
    C2163  O8509     0.70254      .   S
    C2107  O8510     0.70317      .   S
    C2151  O8510     0.70317      .   S
    C1212  O8511     0.70227      .   S
    C1084  O8511     0.70227      .   S
    C1107  O8512     0.70253      .   S
    C1213  O8512     0.70253      .   S
    C1071  O8513     0.70259      .   S
    C1204  O8513     0.70259      .   S
    C3121  O8514     0.69846      .   S
    C3122  O8514     0.69846      .   S
    C3121  O8515     0.54174      .   S
    C3132  O8515     0.54174      .   S
    C2165  O8516     0.70229      .   S
    C2084  O8516     0.70229      .   S
    C2153  O8517     0.70108      .   S
    C2018  O8517     0.70108      .   S
    C2005  O8518     0.70353      .   S
    C2145  O8518     0.70353      .   S
    C4177  O8519     0.69880      .   S
    C4178  O8519     0.69880      .   S
    C4177  O8520     0.54171      .   S
    C4188  O8520     0.54171      .   S
    C1206  O8521     0.70304      .   S
    C1126  O8521     0.70304      .   S
    C2857  O8522     0.69859      .   S
    C2858  O8522     0.69859      .   S
    C2857  O8523     0.54165      .   S
    C2868  O8523     0.54165      .   S
    C2147  O8524     0.70101      .   S
    C2120  O8524     0.70101      .   S
    C1041  O8525     0.70186      .   S
    C1189  O8525     0.70186      .   S
    C1215  O8526     0.70254      .   S
    C1090  O8526     0.70254      .   S
    C2035  O8527     0.70316      .   S
    C2160  O8527     0.70316      .   S
    C1149  O8528     0.70358      .   S
    C1192  O8528     0.70358      .   S
    C2113  O8529     0.70437      .   S
    C2148  O8529     0.70437      .   S
    C2071  O8530     0.70353      .   S
    C2169  O8530     0.70353      .   S
    C2077  O8531     0.70258      .   S
    C2166  O8531     0.70258      .   S
    C1999  O8532     0.70233      .   S
    C2142  O8532     0.70233      .   S
    C2162  O8533     0.70070      .   S
    C2090  O8533     0.70070      .   S
    C1191  O8534     0.70269      .   S
    C1156  O8534     0.70269      .   S
    C2171  O8535     0.70131      .   S
    C2054  O8535     0.70131      .   S
    C2144  O8536     0.70286      .   S
    C2126  O8536     0.70286      .   S
    C2168  O8537     0.70135      .   S
    C2048  O8537     0.70135      .   S
    C2150  O8538     0.70198      .   S
    C2012  O8538     0.70198      .   S
    C1194  O8539     0.70104      .   S
    C1048  O8539     0.70104      .   S
    C4106  O8540     0.54145      .   S
    C4117  O8540     0.54145      .   S
    C3122  O8541     0.54135      .   S
    C3133  O8541     0.54135      .   S
    C4178  O8542     0.54155      .   S
    C4189  O8542     0.54155      .   S
    C2858  O8543     0.54151      .   S
    C2869  O8543     0.54151      .   S
    C1195  O8544     0.54174      .   S
    C1196  O8544     0.54174      .   S
    C1195  O8545     0.70316      .   S
    C1053  O8545     0.70316      .   S
    C1186  O8546     0.54160      .   S
    C1187  O8546     0.54160      .   S
    C1186  O8547     0.70255      .   S
    C1161  O8547     0.70255      .   S
    C1207  O8548     0.54145      .   S
    C1208  O8548     0.54145      .   S
    C1207  O8549     0.70371      .   S
    C1119  O8549     0.70371      .   S
    C1120  O8550     0.54160      .   S
    C1121  O8550     0.54160      .   S
    C1120  O8551     0.70339      .   S
    C1119  O8551     0.70339      .   S
    C1054  O8552     0.54159      .   S
    C1055  O8552     0.54159      .   S
    C1054  O8553     0.70348      .   S
    C1053  O8553     0.70348      .   S
    C1162  O8554     0.54176      .   S
    C1163  O8554     0.54176      .   S
    C1162  O8555     0.70345      .   S
    C1161  O8555     0.70345      .   S
    C1210  O8556     0.54151      .   S
    C1211  O8556     0.54151      .   S
    C1210  O8557     0.70265      .   S
    C1083  O8557     0.70265      .   S
    C1213  O8558     0.54164      .   S
    C1214  O8558     0.54164      .   S
    C1213  O8559     0.70177      .   S
    C1089  O8559     0.70177      .   S
    C2163  O8560     0.54167      .   S
    C2164  O8560     0.54167      .   S
    C2163  O8561     0.70274      .   S
    C2083  O8561     0.70274      .   S
    C1084  O8562     0.54164      .   S
    C1085  O8562     0.54164      .   S
    C1084  O8563     0.70211      .   S
    C1083  O8563     0.70211      .   S
    C1204  O8564     0.54145      .   S
    C1205  O8564     0.54145      .   S
    C1204  O8565     0.70288      .   S
    C1125  O8565     0.70288      .   S
    C2151  O8566     0.54159      .   S
    C2152  O8566     0.54159      .   S
    C2151  O8567     0.70190      .   S
    C2017  O8567     0.70190      .   S
    C2084  O8568     0.54172      .   S
    C2085  O8568     0.54172      .   S
    C2084  O8569     0.70262      .   S
    C2083  O8569     0.70262      .   S
    C1126  O8570     0.54189      .   S
    C1127  O8570     0.54189      .   S
    C1126  O8571     0.70350      .   S
    C1125  O8571     0.70350      .   S
    C2145  O8572     0.54165      .   S
    C2146  O8572     0.54165      .   S
    C2145  O8573     0.70233      .   S
    C2119  O8573     0.70233      .   S
    C1090  O8574     0.54168      .   S
    C1091  O8574     0.54168      .   S
    C1090  O8575     0.70242      .   S
    C1089  O8575     0.70242      .   S
    C1189  O8576     0.54157      .   S
    C1190  O8576     0.54157      .   S
    C1189  O8577     0.70284      .   S
    C1155  O8577     0.70284      .   S
    C2018  O8578     0.54184      .   S
    C2019  O8578     0.54184      .   S
    C2018  O8579     0.70109      .   S
    C2017  O8579     0.70109      .   S
    C2120  O8580     0.54177      .   S
    C2121  O8580     0.54177      .   S
    C2120  O8581     0.70122      .   S
    C2119  O8581     0.70122      .   S
    C2166  O8582     0.54147      .   S
    C2167  O8582     0.54147      .   S
    C2166  O8583     0.70235      .   S
    C2047  O8583     0.70235      .   S
    C1192  O8584     0.54153      .   S
    C1193  O8584     0.54153      .   S
    C1192  O8585     0.70352      .   S
    C1047  O8585     0.70352      .   S
    C2160  O8586     0.54145      .   S
    C2161  O8586     0.54145      .   S
    C2160  O8587     0.70155      .   S
    C2089  O8587     0.70155      .   S
    C2169  O8588     0.54159      .   S
    C2170  O8588     0.54159      .   S
    C2169  O8589     0.70221      .   S
    C2053  O8589     0.70221      .   S
    C2148  O8590     0.54177      .   S
    C2149  O8590     0.54177      .   S
    C2148  O8591     0.70390      .   S
    C2011  O8591     0.70390      .   S
    C2142  O8592     0.54151      .   S
    C2143  O8592     0.54151      .   S
    C2142  O8593     0.70266      .   S
    C2125  O8593     0.70266      .   S
    C1156  O8594     0.54144      .   S
    C1157  O8594     0.54144      .   S
    C1156  O8595     0.70335      .   S
    C1155  O8595     0.70335      .   S
    C2090  O8596     0.54156      .   S
    C2091  O8596     0.54156      .   S
    C2090  O8597     0.70111      .   S
    C2089  O8597     0.70111      .   S
    C2048  O8598     0.54167      .   S
    C2049  O8598     0.54167      .   S
    C2048  O8599     0.70204      .   S
    C2047  O8599     0.70204      .   S
    C2054  O8600     0.54130      .   S
    C2055  O8600     0.54130      .   S
    C2054  O8601     0.70173      .   S
    C2053  O8601     0.70173      .   S
    C2126  O8602     0.54173      .   S
    C2127  O8602     0.54173      .   S
    C2126  O8603     0.70302      .   S
    C2125  O8603     0.70302      .   S
    C1048  O8604     0.54179      .   S
    C1049  O8604     0.54179      .   S
    C1048  O8605     0.70171      .   S
    C1047  O8605     0.70171      .   S
    C2012  O8606     0.54161      .   S
    C2013  O8606     0.54161      .   S
    C2012  O8607     0.70231      .   S
    C2011  O8607     0.70231      .   S
    C1053  O8608     0.74222      .   S
    C1052  O8608     0.74222      .   S
    C1161  O8609     0.74155      .   S
    C1160  O8609     0.74155      .   S
    C1119  O8610     0.74125      .   S
    C1118  O8610     0.74125      .   S
    C1083  O8611     0.74140      .   S
    C1082  O8611     0.74140      .   S
    C1089  O8612     0.74051      .   S
    C1088  O8612     0.74051      .   S
    C2083  O8613     0.74077      .   S
    C2082  O8613     0.74077      .   S
    C1125  O8614     0.74191      .   S
    C1124  O8614     0.74191      .   S
    C2017  O8615     0.73948      .   S
    C2016  O8615     0.73948      .   S
    C2119  O8616     0.74028      .   S
    C2118  O8616     0.74028      .   S
    C1155  O8617     0.74111      .   S
    C1154  O8617     0.74111      .   S
    C2047  O8618     0.73987      .   S
    C2046  O8618     0.73987      .   S
    C1047  O8619     0.74103      .   S
    C1046  O8619     0.74103      .   S
    C2053  O8620     0.74068      .   S
    C2052  O8620     0.74068      .   S
    C2089  O8621     0.73934      .   S
    C2088  O8621     0.73934      .   S
    C2125  O8622     0.74148      .   S
    C2124  O8622     0.74148      .   S
    C2011  O8623     0.74260      .   S
    C2010  O8623     0.74260      .   S
    C1052  O8624     0.63512      .   S
    C1051  O8624     0.63512      .   S
    C1052  O8625     0.63573      .   S
    C1050  O8625     0.63573      .   S
    C1160  O8626     0.63530      .   S
    C1159  O8626     0.63530      .   S
    C1160  O8627     0.63555      .   S
    C1158  O8627     0.63555      .   S
    C1118  O8628     0.63541      .   S
    C1117  O8628     0.63541      .   S
    C1118  O8629     0.63532      .   S
    C1116  O8629     0.63532      .   S
    C1088  O8630     0.63521      .   S
    C1087  O8630     0.63521      .   S
    C1088  O8631     0.63551      .   S
    C1086  O8631     0.63551      .   S
    C1082  O8632     0.63531      .   S
    C1080  O8632     0.63531      .   S
    C1082  O8633     0.63526      .   S
    C1081  O8633     0.63526      .   S
    C1124  O8634     0.63543      .   S
    C1122  O8634     0.63543      .   S
    C1124  O8635     0.63551      .   S
    C1123  O8635     0.63551      .   S
    C2082  O8636     0.63530      .   S
    C2081  O8636     0.63530      .   S
    C2082  O8637     0.63507      .   S
    C2080  O8637     0.63507      .   S
    C2016  O8638     0.63477      .   S
    C2015  O8638     0.63477      .   S
    C2016  O8639     0.63530      .   S
    C2014  O8639     0.63530      .   S
    C2118  O8640     0.63489      .   S
    C2117  O8640     0.63489      .   S
    C2118  O8641     0.63545      .   S
    C2116  O8641     0.63545      .   S
    C2046  O8642     0.63495      .   S
    C2045  O8642     0.63495      .   S
    C2046  O8643     0.63529      .   S
    C2044  O8643     0.63529      .   S
    C1154  O8644     0.63534      .   S
    C1152  O8644     0.63534      .   S
    C1154  O8645     0.63528      .   S
    C1153  O8645     0.63528      .   S
    C1046  O8646     0.63494      .   S
    C1044  O8646     0.63494      .   S
    C1046  O8647     0.63590      .   S
    C1045  O8647     0.63590      .   S
    C2052  O8648     0.63518      .   S
    C2050  O8648     0.63518      .   S
    C2052  O8649     0.63533      .   S
    C2051  O8649     0.63533      .   S
    C2088  O8650     0.63502      .   S
    C2086  O8650     0.63502      .   S
    C2088  O8651     0.63465      .   S
    C2087  O8651     0.63465      .   S
    C2124  O8652     0.63540      .   S
    C2122  O8652     0.63540      .   S
    C2124  O8653     0.63520      .   S
    C2123  O8653     0.63520      .   S
    C2010  O8654     0.63546      .   S
    C2008  O8654     0.63546      .   S
    C2010  O8655     0.63583      .   S
    C2009  O8655     0.63583      .   S
    C1051  O8656     0.92767      .   S
    C1173  O8656     0.92767      .   S
    C1159  O8657     0.92860      .   S
    C1173  O8657     0.92860      .   S
    C1050  O8658     0.92854      .   S
    C1172  O8658     0.92854      .   S
    C1158  O8659     0.92682      .   S
    C1172  O8659     0.92682      .   S
    C1117  O8660     0.92712      .   S
    C1175  O8660     0.92712      .   S
    C1116  O8661     0.92692      .   S
    C1174  O8661     0.92692      .   S
    C1087  O8662     0.92594      .   S
    C1175  O8662     0.92594      .   S
    C1086  O8663     0.92742      .   S
    C1174  O8663     0.92742      .   S
    C1080  O8664     0.92761      .   S
    C1168  O8664     0.92761      .   S
    C1081  O8665     0.92700      .   S
    C1169  O8665     0.92700      .   S
    C1122  O8666     0.92712      .   S
    C1168  O8666     0.92712      .   S
    C1123  O8667     0.92865      .   S
    C1169  O8667     0.92865      .   S
    C2081  O8668     0.92714      .   S
    C2325  O8668     0.92714      .   S
    C2080  O8669     0.92630      .   S
    C2324  O8669     0.92630  1_554   S
    C2015  O8670     0.92384      .   S
    C2327  O8670     0.92384      .   S
    C2117  O8671     0.92382      .   S
    C2327  O8671     0.92382      .   S
    C2045  O8672     0.92444      .   S
    C2325  O8672     0.92444      .   S
    C2014  O8673     0.92616      .   S
    C2326  O8673     0.92616  1_554   S
    C2116  O8674     0.92800      .   S
    C2326  O8674     0.92800  1_554   S
    C2044  O8675     0.92730      .   S
    C2324  O8675     0.92730  1_554   S
    C1152  O8676     0.92600      .   S
    C1170  O8676     0.92600  1_554   S
    C1153  O8677     0.92766      .   S
    C1171  O8677     0.92766  1_554   S
    C1044  O8678     0.92492      .   S
    C1170  O8678     0.92492  1_554   S
    C1045  O8679     0.92901      .   S
    C1171  O8679     0.92901  1_554   S
    C2050  O8680     0.92715      .   S
    C2322  O8680     0.92715  1_554   S
    C2051  O8681     0.92538      .   S
    C2323  O8681     0.92538  1_554   S
    C2086  O8682     0.92698      .   S
    C2322  O8682     0.92698  1_554   S
    C2087  O8683     0.92193      .   S
    C2323  O8683     0.92193  1_554   S
    C2008  O8684     0.92858      .   S
    C2320  O8684     0.92858  1_554   S
    C2122  O8685     0.92668      .   S
    C2320  O8685     0.92668  1_554   S
    C2123  O8686     0.92804      .   S
    C2321  O8686     0.92804  1_554   S
    C2009  O8687     0.92860      .   S
    C2321  O8687     0.92860  1_554   S
    C1173  O8688     0.92790  1_556   S
    C929   O8688     0.92790      .   S
    C1173  O8689     0.92783  1_556   S
    C893   O8689     0.92783      .   S
    C1172  O8690     0.92713  1_556   S
    C928   O8690     0.92713      .   S
    C1172  O8691     0.92869  1_556   S
    C892   O8691     0.92869      .   S
    C1175  O8692     0.92554  1_556   S
    C863   O8692     0.92554      .   S
    C1175  O8693     0.92643  1_556   S
    C965   O8693     0.92643      .   S
    C1174  O8694     0.92716  1_556   S
    C862   O8694     0.92716      .   S
    C1174  O8695     0.92703  1_556   S
    C964   O8695     0.92703      .   S
    C1168  O8696     0.92780  1_556   S
    C970   O8696     0.92780      .   S
    C1168  O8697     0.92749  1_556   S
    C856   O8697     0.92749      .   S
    C1169  O8698     0.92854  1_556   S
    C971   O8698     0.92854      .   S
    C1169  O8699     0.92758  1_556   S
    C857   O8699     0.92758      .   S
    C2325  O8700     0.92507  1_556   S
    C2203  O8700     0.92507      .   S
    C2325  O8701     0.92597  1_556   S
    C2311  O8701     0.92597      .   S
    C2327  O8702     0.92360  1_556   S
    C2239  O8702     0.92360      .   S
    C2327  O8703     0.92415  1_556   S
    C2269  O8703     0.92415      .   S
    C2324  O8704     0.92766      .   S
    C2202  O8704     0.92766      .   S
    C2324  O8705     0.92604      .   S
    C2310  O8705     0.92604      .   S
    C2326  O8706     0.92615      .   S
    C2238  O8706     0.92615      .   S
    C2326  O8707     0.92871      .   S
    C2268  O8707     0.92871      .   S
    C1170  O8708     0.92429      .   S
    C898   O8708     0.92429      .   S
    C1170  O8709     0.92620      .   S
    C934   O8709     0.92620      .   S
    C1171  O8710     0.92705      .   S
    C935   O8710     0.92705      .   S
    C1171  O8711     0.92999      .   S
    C899   O8711     0.92999      .   S
    C2322  O8712     0.92646      .   S
    C2304  O8712     0.92646      .   S
    C2322  O8713     0.92734      .   S
    C2196  O8713     0.92734      .   S
    C2323  O8714     0.92192      .   S
    C2305  O8714     0.92192      .   S
    C2323  O8715     0.92577      .   S
    C2197  O8715     0.92577      .   S
    C2320  O8716     0.92709      .   S
    C2274  O8716     0.92709      .   S
    C2320  O8717     0.92846      .   S
    C2232  O8717     0.92846      .   S
    C2321  O8718     0.92779      .   S
    C2275  O8718     0.92779      .   S
    C2321  O8719     0.92956      .   S
    C2233  O8719     0.92956      .   S
    C929   O8720     0.63569      .   S
    C930   O8720     0.63569      .   S
    C893   O8721     0.63538      .   S
    C894   O8721     0.63538      .   S
    C928   O8722     0.63510      .   S
    C930   O8722     0.63510      .   S
    C892   O8723     0.63556      .   S
    C894   O8723     0.63556      .   S
    C863   O8724     0.63524      .   S
    C864   O8724     0.63524      .   S
    C862   O8725     0.63507      .   S
    C864   O8725     0.63507      .   S
    C965   O8726     0.63523      .   S
    C966   O8726     0.63523      .   S
    C964   O8727     0.63562      .   S
    C966   O8727     0.63562      .   S
    C970   O8728     0.63501      .   S
    C972   O8728     0.63501      .   S
    C971   O8729     0.63559      .   S
    C972   O8729     0.63559      .   S
    C856   O8730     0.63552      .   S
    C858   O8730     0.63552      .   S
    C857   O8731     0.63547      .   S
    C858   O8731     0.63547      .   S
    C2203  O8732     0.63496      .   S
    C2204  O8732     0.63496      .   S
    C2239  O8733     0.63489      .   S
    C2240  O8733     0.63489      .   S
    C2311  O8734     0.63533      .   S
    C2312  O8734     0.63533      .   S
    C2269  O8735     0.63498      .   S
    C2270  O8735     0.63498      .   S
    C2202  O8736     0.63571      .   S
    C2204  O8736     0.63571      .   S
    C2310  O8737     0.63521      .   S
    C2312  O8737     0.63521      .   S
    C2238  O8738     0.63510      .   S
    C2240  O8738     0.63510      .   S
    C2268  O8739     0.63574      .   S
    C2270  O8739     0.63574      .   S
    C898   O8740     0.63516      .   S
    C900   O8740     0.63516      .   S
    C934   O8741     0.63531      .   S
    C936   O8741     0.63531      .   S
    C935   O8742     0.63493      .   S
    C936   O8742     0.63493      .   S
    C899   O8743     0.63523      .   S
    C900   O8743     0.63523      .   S
    C2305  O8744     0.63460      .   S
    C2306  O8744     0.63460      .   S
    C2304  O8745     0.63541      .   S
    C2306  O8745     0.63541      .   S
    C2197  O8746     0.63501      .   S
    C2198  O8746     0.63501      .   S
    C2196  O8747     0.63523      .   S
    C2198  O8747     0.63523      .   S
    C2274  O8748     0.63520      .   S
    C2276  O8748     0.63520      .   S
    C2232  O8749     0.63594      .   S
    C2234  O8749     0.63594      .   S
    C2275  O8750     0.63558      .   S
    C2276  O8750     0.63558      .   S
    C2233  O8751     0.63547      .   S
    C2234  O8751     0.63547      .   S
    C930   O8752     0.74205      .   S
    C931   O8752     0.74205      .   S
    C894   O8753     0.74224      .   S
    C895   O8753     0.74224      .   S
    C864   O8754     0.74076      .   S
    C865   O8754     0.74076      .   S
    C966   O8755     0.74091      .   S
    C967   O8755     0.74091      .   S
    C972   O8756     0.74208      .   S
    C973   O8756     0.74208      .   S
    C858   O8757     0.74140      .   S
    C859   O8757     0.74140      .   S
    C2204  O8758     0.74073      .   S
    C2205  O8758     0.74073      .   S
    C2240  O8759     0.73935      .   S
    C2241  O8759     0.73935      .   S
    C2312  O8760     0.74007      .   S
    C2313  O8760     0.74007      .   S
    C2270  O8761     0.74088      .   S
    C2271  O8761     0.74088      .   S
    C936   O8762     0.74078      .   S
    C937   O8762     0.74078      .   S
    C900   O8763     0.74161      .   S
    C901   O8763     0.74161      .   S
    C2306  O8764     0.73874      .   S
    C2307  O8764     0.73874      .   S
    C2198  O8765     0.74077      .   S
    C2199  O8765     0.74077      .   S
    C2276  O8766     0.74109      .   S
    C2277  O8766     0.74109      .   S
    C2234  O8767     0.74253      .   S
    C2235  O8767     0.74253      .   S
    C931   O8768     0.70123      .   S
    C932   O8768     0.70123      .   S
    C931   O8769     0.70345      .   S
    C1011  O8769     0.70345      .   S
    C895   O8770     0.70232      .   S
    C896   O8770     0.70232      .   S
    C895   O8771     0.70271      .   S
    C1014  O8771     0.70271      .   S
    C865   O8772     0.70120      .   S
    C866   O8772     0.70120      .   S
    C865   O8773     0.70256      .   S
    C999   O8773     0.70256      .   S
    C933   O8774     0.54176      .   S
    C932   O8774     0.54176      .   S
    C973   O8775     0.70150      .   S
    C974   O8775     0.70150      .   S
    C973   O8776     0.70307      .   S
    C990   O8776     0.70307      .   S
    C897   O8777     0.54170      .   S
    C896   O8777     0.54170      .   S
    C967   O8778     0.70175      .   S
    C968   O8778     0.70175      .   S
    C967   O8779     0.70237      .   S
    C993   O8779     0.70237      .   S
    C867   O8780     0.54177      .   S
    C866   O8780     0.54177      .   S
    C859   O8781     0.70372      .   S
    C860   O8781     0.70372      .   S
    C859   O8782     0.70283      .   S
    C996   O8782     0.70283      .   S
    C2241  O8783     0.70157      .   S
    C2242  O8783     0.70157      .   S
    C2241  O8784     0.70130      .   S
    C2365  O8784     0.70130      .   S
    C2313  O8785     0.70129      .   S
    C2314  O8785     0.70129      .   S
    C2313  O8786     0.70239      .   S
    C2338  O8786     0.70239      .   S
    C969   O8787     0.54146      .   S
    C968   O8787     0.54146      .   S
    C1012  O8788     0.54175      .   S
    C1011  O8788     0.54175      .   S
    C2205  O8789     0.70185      .   S
    C2206  O8789     0.70185      .   S
    C2205  O8790     0.70206      .   S
    C2347  O8790     0.70206      .   S
    C2271  O8791     0.70196      .   S
    C2272  O8791     0.70196      .   S
    C2271  O8792     0.70164      .   S
    C2359  O8792     0.70164      .   S
    C1015  O8793     0.54166      .   S
    C1014  O8793     0.54166      .   S
    C975   O8794     0.54178      .   S
    C974   O8794     0.54178      .   S
    C1000  O8795     0.54142      .   S
    C999   O8795     0.54142      .   S
    C937   O8796     0.70281      .   S
    C938   O8796     0.70281      .   S
    C937   O8797     0.70254      .   S
    C1008  O8797     0.70254      .   S
    C2315  O8798     0.54174      .   S
    C2314  O8798     0.54174      .   S
    C2307  O8799     0.70096      .   S
    C2308  O8799     0.70096      .   S
    C2307  O8800     0.70092      .   S
    C2341  O8800     0.70092      .   S
    C901   O8801     0.70352      .   S
    C902   O8801     0.70352      .   S
    C901   O8802     0.70240      .   S
    C1017  O8802     0.70240      .   S
    C2243  O8803     0.54143      .   S
    C2242  O8803     0.54143      .   S
    C861   O8804     0.54175      .   S
    C860   O8804     0.54175      .   S
    C2273  O8805     0.54165      .   S
    C2272  O8805     0.54165      .   S
    C991   O8806     0.54154      .   S
    C990   O8806     0.54154      .   S
    C939   O8807     0.54161      .   S
    C938   O8807     0.54161      .   S
    C994   O8808     0.54171      .   S
    C993   O8808     0.54171      .   S
    C2207  O8809     0.54136      .   S
    C2206  O8809     0.54136      .   S
    C2199  O8810     0.70193      .   S
    C2200  O8810     0.70193      .   S
    C2199  O8811     0.70202      .   S
    C2344  O8811     0.70202      .   S
    C997   O8812     0.54164      .   S
    C996   O8812     0.54164      .   S
    C2277  O8813     0.70270      .   S
    C2278  O8813     0.70270      .   S
    C2277  O8814     0.70335      .   S
    C2356  O8814     0.70335      .   S
    C2235  O8815     0.70381      .   S
    C2236  O8815     0.70381      .   S
    C2235  O8816     0.70292      .   S
    C2362  O8816     0.70292      .   S
    C2309  O8817     0.54166      .   S
    C2308  O8817     0.54166      .   S
    C2201  O8818     0.54150      .   S
    C2200  O8818     0.54150      .   S
    C2366  O8819     0.54186      .   S
    C2365  O8819     0.54186      .   S
    C2348  O8820     0.54147      .   S
    C2347  O8820     0.54147      .   S
    C903   O8821     0.54165      .   S
    C902   O8821     0.54165      .   S
    C2279  O8822     0.54147      .   S
    C2278  O8822     0.54147      .   S
    C1018  O8823     0.54138      .   S
    C1017  O8823     0.54138      .   S
    C2339  O8824     0.54163      .   S
    C2338  O8824     0.54163      .   S
    C2360  O8825     0.54158      .   S
    C2359  O8825     0.54158      .   S
    C2342  O8826     0.54142      .   S
    C2341  O8826     0.54142      .   S
    C1009  O8827     0.54156      .   S
    C1008  O8827     0.54156      .   S
    C2237  O8828     0.54172      .   S
    C2236  O8828     0.54172      .   S
    C932   O8829     0.70128      .   S
    C1013  O8829     0.70128      .   S
    C2363  O8830     0.54148      .   S
    C2362  O8830     0.54148      .   S
    C896   O8831     0.70304      .   S
    C1016  O8831     0.70304      .   S
    C2357  O8832     0.54132      .   S
    C2356  O8832     0.54132      .   S
    C2345  O8833     0.54158      .   S
    C2344  O8833     0.54158      .   S
    C1011  O8834     0.70444      .   S
    C889   O8834     0.70444      .   S
    C866   O8835     0.70108      .   S
    C1001  O8835     0.70108      .   S
    C4285  O8836     0.54150      .   S
    C4274  O8836     0.54150      .   S
    C1014  O8837     0.70329      .   S
    C925   O8837     0.70329      .   S
    C999   O8838     0.70426      .   S
    C955   O8838     0.70426      .   S
    C974   O8839     0.70184      .   S
    C992   O8839     0.70184      .   S
    C968   O8840     0.70199      .   S
    C995   O8840     0.70199      .   S
    C990   O8841     0.70430      .   S
    C847   O8841     0.70430      .   S
    C2314  O8842     0.70114      .   S
    C2340  O8842     0.70114      .   S
    C860   O8843     0.70272      .   S
    C998   O8843     0.70272      .   S
    C2242  O8844     0.70146      .   S
    C2367  O8844     0.70146      .   S
    C993   O8845     0.70293      .   S
    C853   O8845     0.70293      .   S
    C996   O8846     0.70225      .   S
    C961   O8846     0.70225      .   S
    C2272  O8847     0.70219      .   S
    C2361  O8847     0.70219      .   S
    C938   O8848     0.70214      .   S
    C1010  O8848     0.70214      .   S
    C2365  O8849     0.70257      .   S
    C2259  O8849     0.70257      .   S
    C2206  O8850     0.70267      .   S
    C2349  O8850     0.70267      .   S
    C2308  O8851     0.70111      .   S
    C2343  O8851     0.70111      .   S
    C2338  O8852     0.70346      .   S
    C2187  O8852     0.70346      .   S
    C2347  O8853     0.70298      .   S
    C2295  O8853     0.70298      .   S
    C1008  O8854     0.70236      .   S
    C883   O8854     0.70236      .   S
    C2359  O8855     0.70289      .   S
    C2229  O8855     0.70289      .   S
    C902   O8856     0.70335      .   S
    C1019  O8856     0.70335      .   S
    C1017  O8857     0.70190      .   S
    C919   O8857     0.70190      .   S
    C2341  O8858     0.70283      .   S
    C2193  O8858     0.70283      .   S
    C2200  O8859     0.70243      .   S
    C2346  O8859     0.70243      .   S
    C2278  O8860     0.70209      .   S
    C2358  O8860     0.70209      .   S
    C2236  O8861     0.70397      .   S
    C2364  O8861     0.70397      .   S
    C2362  O8862     0.70257      .   S
    C2265  O8862     0.70257      .   S
    C2356  O8863     0.70328      .   S
    C2223  O8863     0.70328      .   S
    C2344  O8864     0.70285      .   S
    C2301  O8864     0.70285      .   S
    C4284  O8865     0.54169      .   S
    C4273  O8865     0.54169      .   S
    C1013  O8866     0.74217      .   S
    C4491  O8866     0.74217      .   S
    C1013  O8867     0.70264      .   S
    C890   O8867     0.70264      .   S
    C4274  O8868     0.69860      .   S
    C4273  O8868     0.69860      .   S
    C4274  O8869     0.70242      .   S
    C4275  O8869     0.70242      .   S
    C1016  O8870     0.70328      .   S
    C926   O8870     0.70328      .   S
    C1016  O8871     0.74437      .   S
    C4011  O8871     0.74437      .   S
    C889   O8872     0.70404      .   S
    C890   O8872     0.70404      .   S
    C889   O8873     0.74291      .   S
    C888   O8873     0.74291      .   S
    C1001  O8874     0.70259      .   S
    C956   O8874     0.70259      .   S
    C1001  O8875     0.74205      .   S
    C2955  O8875     0.74205      .   S
    C925   O8876     0.70361      .   S
    C926   O8876     0.70361      .   S
    C925   O8877     0.74220      .   S
    C924   O8877     0.74220      .   S
    C992   O8878     0.70293      .   S
    C848   O8878     0.70293      .   S
    C992   O8879     0.74283      .   S
    C3147  O8879     0.74283      .   S
    C955   O8880     0.70395      .   S
    C956   O8880     0.70395      .   S
    C955   O8881     0.74236      .   S
    C954   O8881     0.74236      .   S
    C995   O8882     0.70276      .   S
    C854   O8882     0.70276      .   S
    C995   O8883     0.74177      .   S
    C3435  O8883     0.74177      .   S
    C847   O8884     0.70388      .   S
    C848   O8884     0.70388      .   S
    C847   O8885     0.74294      .   S
    C846   O8885     0.74294      .   S
    C2340  O8886     0.74082      .   S
    C4563  O8886     0.74082      .   S
    C2340  O8887     0.70218      .   S
    C2188  O8887     0.70218      .   S
    C998   O8888     0.70157      .   S
    C962   O8888     0.70157      .   S
    C998   O8889     0.74227      .   S
    C2763  O8889     0.74227      .   S
    C1010  O8890     0.70199      .   S
    C884   O8890     0.70199      .   S
    C1010  O8891     0.74165      .   S
    C4395  O8891     0.74165      .   S
    C2367  O8892     0.70277      .   S
    C2260  O8892     0.70277      .   S
    C2367  O8893     0.74146      .   S
    C2835  O8893     0.74146      .   S
    C853   O8894     0.70335      .   S
    C854   O8894     0.70335      .   S
    C853   O8895     0.74121      .   S
    C852   O8895     0.74121      .   S
    C961   O8896     0.70201      .   S
    C962   O8896     0.70201      .   S
    C961   O8897     0.74067      .   S
    C960   O8897     0.74067      .   S
    C2361  O8898     0.70285      .   S
    C2230  O8898     0.70285      .   S
    C2361  O8899     0.74308      .   S
    C3219  O8899     0.74308      .   S
    C2343  O8900     0.70262      .   S
    C2194  O8900     0.70262      .   S
    C2343  O8901     0.74068      .   S
    C4467  O8901     0.74068      .   S
    C2259  O8902     0.70378      .   S
    C2260  O8902     0.70378      .   S
    C2259  O8903     0.74093      .   S
    C2258  O8903     0.74093      .   S
    C883   O8904     0.70247      .   S
    C884   O8904     0.70247      .   S
    C883   O8905     0.74046      .   S
    C882   O8905     0.74046      .   S
    C2187  O8906     0.70285      .   S
    C2188  O8906     0.70285      .   S
    C2187  O8907     0.74068      .   S
    C2186  O8907     0.74068      .   S
    C1019  O8908     0.70272      .   S
    C920   O8908     0.70272      .   S
    C1019  O8909     0.74320      .   S
    C4203  O8909     0.74320      .   S
    C2193  O8910     0.70383      .   S
    C2194  O8910     0.70383      .   S
    C2193  O8911     0.74035      .   S
    C2192  O8911     0.74035      .   S
    C919   O8912     0.70206      .   S
    C920   O8912     0.70206      .   S
    C919   O8913     0.74057      .   S
    C918   O8913     0.74057      .   S
    C2349  O8914     0.70298      .   S
    C2296  O8914     0.70298      .   S
    C2349  O8915     0.74242      .   S
    C4083  O8915     0.74242      .   S
    C2358  O8916     0.74046      .   S
    C3507  O8916     0.74046      .   S
    C2358  O8917     0.70128      .   S
    C2224  O8917     0.70128      .   S
    C2229  O8918     0.70338      .   S
    C2230  O8918     0.70338      .   S
    C2229  O8919     0.74107      .   S
    C2228  O8919     0.74107      .   S
    C2346  O8920     0.74317      .   S
    C4275  O8920     0.74317      .   S
    C2346  O8921     0.70361      .   S
    C2302  O8921     0.70361      .   S
    C2295  O8922     0.70292      .   S
    C2296  O8922     0.70292      .   S
    C2295  O8923     0.74094      .   S
    C2294  O8923     0.74094      .   S
    C886   O8924     0.63535      .   S
    C888   O8924     0.63535      .   S
    C886   O8925     0.92744      .   S
    C978   O8925     0.92744      .   S
    C2364  O8926     0.70314      .   S
    C2266  O8926     0.70314      .   S
    C2364  O8927     0.74497      .   S
    C3027  O8927     0.74497      .   S
    C922   O8928     0.63535      .   S
    C924   O8928     0.63535      .   S
    C922   O8929     0.92621      .   S
    C980   O8929     0.92621      .   S
    C952   O8930     0.63530      .   S
    C954   O8930     0.63530      .   S
    C952   O8931     0.92708      .   S
    C978   O8931     0.92708  1_545   S
    C844   O8932     0.63549      .   S
    C846   O8932     0.63549      .   S
    C844   O8933     0.92758      .   S
    C980   O8933     0.92758  1_655   S
    C2265  O8934     0.70302      .   S
    C2266  O8934     0.70302      .   S
    C2265  O8935     0.74267      .   S
    C2264  O8935     0.74267      .   S
    C4021  O8936     0.54131      .   S
    C4010  O8936     0.54131      .   S
    C4501  O8937     0.54163      .   S
    C4490  O8937     0.54163      .   S
    C2223  O8938     0.70198      .   S
    C2224  O8938     0.70198      .   S
    C2223  O8939     0.74079      .   S
    C2222  O8939     0.74079      .   S
    C958   O8940     0.63531      .   S
    C960   O8940     0.63531      .   S
    C958   O8941     0.92842      .   S
    C976   O8941     0.92842  1_565   S
    C850   O8942     0.63519      .   S
    C852   O8942     0.63519      .   S
    C850   O8943     0.92567      .   S
    C982   O8943     0.92567      .   S
    C880   O8944     0.63532      .   S
    C882   O8944     0.63532      .   S
    C880   O8945     0.92725      .   S
    C976   O8945     0.92725      .   S
    C2301  O8946     0.70371      .   S
    C2302  O8946     0.70371      .   S
    C2301  O8947     0.74182      .   S
    C2300  O8947     0.74182      .   S
    C916   O8948     0.63561      .   S
    C918   O8948     0.63561      .   S
    C916   O8949     0.92704      .   S
    C982   O8949     0.92704  1_655   S
    C2256  O8950     0.63555      .   S
    C2258  O8950     0.63555      .   S
    C2256  O8951     0.92711      .   S
    C2330  O8951     0.92711      .   S
    C2190  O8952     0.63477      .   S
    C2192  O8952     0.63477      .   S
    C2190  O8953     0.92358      .   S
    C2330  O8953     0.92358      .   S
    C2184  O8954     0.63484      .   S
    C2186  O8954     0.63484      .   S
    C2184  O8955     0.92359      .   S
    C2328  O8955     0.92359      .   S
    C4273  O8956     0.70218      .   S
    C4272  O8956     0.70218      .   S
    C2965  O8957     0.54162      .   S
    C2954  O8957     0.54162      .   S
    C2226  O8958     0.63543      .   S
    C2228  O8958     0.63543      .   S
    C2226  O8959     0.92621      .   S
    C2318  O8959     0.92621      .   S
    C2292  O8960     0.63497      .   S
    C2294  O8960     0.63497      .   S
    C2292  O8961     0.92350      .   S
    C2318  O8961     0.92350      .   S
    C3445  O8962     0.54142      .   S
    C3434  O8962     0.54142      .   S
    C3157  O8963     0.54160      .   S
    C3146  O8963     0.54160      .   S
    C2262  O8964     0.63609      .   S
    C2264  O8964     0.63609      .   S
    C2262  O8965     0.93021      .   S
    C2328  O8965     0.93021      .   S
    C4491  O8966     0.70272      .   S
    C4490  O8966     0.70272      .   S
    C4491  O8967     0.70158      .   S
    C4492  O8967     0.70158      .   S
    C4573  O8968     0.54158      .   S
    C4562  O8968     0.54158      .   S
    C890   O8969     0.54151      .   S
    C891   O8969     0.54151      .   S
    C3229  O8970     0.54128      .   S
    C3218  O8970     0.54128      .   S
    C2220  O8971     0.63497      .   S
    C2222  O8971     0.63497      .   S
    C2220  O8972     0.92358      .   S
    C2316  O8972     0.92358      .   S
    C4093  O8973     0.54161      .   S
    C4082  O8973     0.54161      .   S
    C926   O8974     0.54185      .   S
    C927   O8974     0.54185      .   S
    C956   O8975     0.54163      .   S
    C957   O8975     0.54163      .   S
    C2845  O8976     0.54178      .   S
    C2834  O8976     0.54178      .   S
    C848   O8977     0.54162      .   S
    C849   O8977     0.54162      .   S
    C2298  O8978     0.63585      .   S
    C2300  O8978     0.63585      .   S
    C2298  O8979     0.92741      .   S
    C2316  O8979     0.92741      .   S
    C4011  O8980     0.70297      .   S
    C4010  O8980     0.70297      .   S
    C4011  O8981     0.70277      .   S
    C4012  O8981     0.70277      .   S
    C2955  O8982     0.70257      .   S
    C2954  O8982     0.70257      .   S
    C2955  O8983     0.70181      .   S
    C2956  O8983     0.70181      .   S
    C4490  O8984     0.69814      .   S
    C4489  O8984     0.69814      .   S
    C854   O8985     0.54178      .   S
    C855   O8985     0.54178      .   S
    C3147  O8986     0.70303      .   S
    C3146  O8986     0.70303      .   S
    C3147  O8987     0.70211      .   S
    C3148  O8987     0.70211      .   S
    C962   O8988     0.54201      .   S
    C963   O8988     0.54201      .   S
    C4406  O8989     0.54148      .   S
    C4396  O8989     0.54148      .   S
    C3435  O8990     0.70253      .   S
    C3434  O8990     0.70253      .   S
    C3435  O8991     0.70174      .   S
    C3436  O8991     0.70174      .   S
    C4563  O8992     0.70222      .   S
    C4562  O8992     0.70222      .   S
    C4563  O8993     0.70182      .   S
    C4564  O8993     0.70182      .   S
    C884   O8994     0.54179      .   S
    C885   O8994     0.54179      .   S
    C2774  O8995     0.54196      .   S
    C2764  O8995     0.54196      .   S
    C2188  O8996     0.54171      .   S
    C2189  O8996     0.54171      .   S
    C4477  O8997     0.54170      .   S
    C4466  O8997     0.54170      .   S
    C4395  O8998     0.70206      .   S
    C4396  O8998     0.70206      .   S
    C4395  O8999     0.70217      .   S
    C4394  O8999     0.70217      .   S
    C2260  O9000     0.54139      .   S
    C2261  O9000     0.54139      .   S
    C4010  O9001     0.69885      .   S
    C4009  O9001     0.69885      .   S
    C888   O9002     0.63600      .   S
    C887   O9002     0.63600      .   S
    C2835  O9003     0.70226      .   S
    C2834  O9003     0.70226      .   S
    C2835  O9004     0.70162      .   S
    C2836  O9004     0.70162      .   S
    C2763  O9005     0.70130      .   S
    C2764  O9005     0.70130      .   S
    C2763  O9006     0.70217      .   S
    C2762  O9006     0.70217      .   S
    C4214  O9007     0.54129      .   S
    C4204  O9007     0.54129      .   S
    C2194  O9008     0.54175      .   S
    C2195  O9008     0.54175      .   S
    C954   O9009     0.63558      .   S
    C953   O9009     0.63558      .   S
    C924   O9010     0.63566      .   S
    C923   O9010     0.63566      .   S
    C3518  O9011     0.54175      .   S
    C3508  O9011     0.54175      .   S
    C2230  O9012     0.54196      .   S
    C2231  O9012     0.54196      .   S
    C3219  O9013     0.70271      .   S
    C3218  O9013     0.70271      .   S
    C3219  O9014     0.70204      .   S
    C3220  O9014     0.70204      .   S
    C920   O9015     0.54180      .   S
    C921   O9015     0.54180      .   S
    C846   O9016     0.63593      .   S
    C845   O9016     0.63593      .   S
    C4467  O9017     0.70230      .   S
    C4466  O9017     0.70230      .   S
    C4467  O9018     0.70160      .   S
    C4468  O9018     0.70160      .   S
    C2954  O9019     0.69804      .   S
    C2953  O9019     0.69804      .   S
    C3038  O9020     0.54127      .   S
    C3028  O9020     0.54127      .   S
    C4275  O9021     0.70212      .   S
    C4276  O9021     0.70212      .   S
    C2296  O9022     0.54179      .   S
    C2297  O9022     0.54179      .   S
    C3507  O9023     0.70187      .   S
    C3508  O9023     0.70187      .   S
    C3507  O9024     0.70191      .   S
    C3506  O9024     0.70191      .   S
    C3146  O9025     0.69786      .   S
    C3145  O9025     0.69786      .   S
    C3434  O9026     0.69813      .   S
    C3433  O9026     0.69813      .   S
    C4562  O9027     0.69765      .   S
    C4561  O9027     0.69765      .   S
    C2224  O9028     0.54195      .   S
    C2225  O9028     0.54195      .   S
    C960   O9029     0.63492      .   S
    C959   O9029     0.63492      .   S
    C852   O9030     0.63553      .   S
    C851   O9030     0.63553      .   S
    C2266  O9031     0.54176      .   S
    C2267  O9031     0.54176      .   S
    C4203  O9032     0.70246      .   S
    C4204  O9032     0.70246      .   S
    C4203  O9033     0.70260      .   S
    C4202  O9033     0.70260      .   S
    C4502  O9034     0.54134      .   S
    C4492  O9034     0.54134      .   S
    C882   O9035     0.63519      .   S
    C881   O9035     0.63519      .   S
    C3218  O9036     0.69827      .   S
    C3217  O9036     0.69827      .   S
    C2258  O9037     0.63457      .   S
    C2257  O9037     0.63457      .   S
    C4083  O9038     0.70271      .   S
    C4082  O9038     0.70271      .   S
    C4083  O9039     0.70228      .   S
    C4084  O9039     0.70228      .   S
    C918   O9040     0.63515      .   S
    C917   O9040     0.63515      .   S
    C2302  O9041     0.54167      .   S
    C2303  O9041     0.54167      .   S
    C2834  O9042     0.69749      .   S
    C2833  O9042     0.69749      .   S
    C3027  O9043     0.70285      .   S
    C3028  O9043     0.70285      .   S
    C3027  O9044     0.70283      .   S
    C3026  O9044     0.70283      .   S
    C2192  O9045     0.63545      .   S
    C2191  O9045     0.63545      .   S
    C4405  O9046     0.54135      .   S
    C4394  O9046     0.54135      .   S
    C2186  O9047     0.63542      .   S
    C2185  O9047     0.63542      .   S
    C4396  O9048     0.69904      .   S
    C4397  O9048     0.69904      .   S
    C2228  O9049     0.63549      .   S
    C2227  O9049     0.63549      .   S
    C2294  O9050     0.63563      .   S
    C2293  O9050     0.63563      .   S
    C4466  O9051     0.69761      .   S
    C4465  O9051     0.69761      .   S
    C4492  O9052     0.69993      .   S
    C4493  O9052     0.69993      .   S
    C2966  O9053     0.54145      .   S
    C2956  O9053     0.54145      .   S
    C4082  O9054     0.69779      .   S
    C4081  O9054     0.69779      .   S
    C4478  O9055     0.54141      .   S
    C4468  O9055     0.54141      .   S
    C2773  O9056     0.54165      .   S
    C2762  O9056     0.54165      .   S
    C4574  O9057     0.54148      .   S
    C4564  O9057     0.54148      .   S
    C3158  O9058     0.54129      .   S
    C3148  O9058     0.54129      .   S
    C2764  O9059     0.69913      .   S
    C2765  O9059     0.69913      .   S
    C3446  O9060     0.54157      .   S
    C3436  O9060     0.54157      .   S
    C2264  O9061     0.63486      .   S
    C2263  O9061     0.63486      .   S
    C2846  O9062     0.54143      .   S
    C2836  O9062     0.54143      .   S
    C3508  O9063     0.69829      .   S
    C3509  O9063     0.69829      .   S
    C3517  O9064     0.54136      .   S
    C3506  O9064     0.54136      .   S
    C980   O9065     0.92770      .   S
    C868   O9065     0.92770      .   S
    C980   O9066     0.92642  1_655   S
    C946   O9066     0.92642      .   S
    C4204  O9067     0.69954      .   S
    C4205  O9067     0.69954      .   S
    C2222  O9068     0.63578      .   S
    C2221  O9068     0.63578      .   S
    C978   O9069     0.92756      .   S
    C904   O9069     0.92756      .   S
    C978   O9070     0.92745  1_545   S
    C838   O9070     0.92745      .   S
    C2956  O9071     0.69996      .   S
    C2957  O9071     0.69996      .   S
    C4394  O9072     0.69857      .   S
    C4393  O9072     0.69857      .   S
    C3028  O9073     0.70010      .   S
    C3029  O9073     0.70010      .   S
    C4022  O9074     0.54136      .   S
    C4012  O9074     0.54136      .   S
    C4564  O9075     0.69942      .   S
    C4565  O9075     0.69942      .   S
    C3148  O9076     0.70022      .   S
    C3149  O9076     0.70022      .   S
    C2300  O9077     0.63518      .   S
    C2299  O9077     0.63518      .   S
    C3436  O9078     0.69960      .   S
    C3437  O9078     0.69960      .   S
    C976   O9079     0.92725  1_565   S
    C832   O9079     0.92725      .   S
    C976   O9080     0.92832      .   S
    C910   O9080     0.92832      .   S
    C982   O9081     0.92707      .   S
    C940   O9081     0.92707      .   S
    C982   O9082     0.92583  1_655   S
    C874   O9082     0.92583      .   S
    C4468  O9083     0.69950      .   S
    C4469  O9083     0.69950      .   S
    C2836  O9084     0.70017      .   S
    C2837  O9084     0.70017      .   S
    C3230  O9085     0.54162      .   S
    C3220  O9085     0.54162      .   S
    C4012  O9086     0.70060      .   S
    C4013  O9086     0.70060      .   S
    C2762  O9087     0.69896      .   S
    C2761  O9087     0.69896      .   S
    C2330  O9088     0.92401      .   S
    C2214  O9088     0.92401      .   S
    C2330  O9089     0.92783      .   S
    C2280  O9089     0.92783      .   S
    C4213  O9090     0.54117      .   S
    C4202  O9090     0.54117      .   S
    C4489  O9091     0.54187      .   S
    C4500  O9091     0.54187      .   S
    C4489  O9092     0.70146      .   S
    C4488  O9092     0.70146      .   S
    C3037  O9093     0.54116      .   S
    C3026  O9093     0.54116      .   S
    C3506  O9094     0.69835      .   S
    C3505  O9094     0.69835      .   S
    C2318  O9095     0.92403      .   S
    C2244  O9095     0.92403      .   S
    C2318  O9096     0.92742      .   S
    C2178  O9096     0.92742      .   S
    C3220  O9097     0.70000      .   S
    C3221  O9097     0.70000      .   S
    C2328  O9098     0.92379      .   S
    C2208  O9098     0.92379      .   S
    C2328  O9099     0.92964      .   S
    C2286  O9099     0.92964      .   S
    C4009  O9100     0.54192      .   S
    C4020  O9100     0.54192      .   S
    C4009  O9101     0.70143      .   S
    C4008  O9101     0.70143      .   S
    C4202  O9102     0.69910      .   S
    C4201  O9102     0.69910      .   S
    C2953  O9103     0.54184      .   S
    C2964  O9103     0.54184      .   S
    C2953  O9104     0.70137      .   S
    C2952  O9104     0.70137      .   S
    C4094  O9105     0.54149      .   S
    C4084  O9105     0.54149      .   S
    C3026  O9106     0.69973      .   S
    C3025  O9106     0.69973      .   S
    C2316  O9107     0.92424      .   S
    C2172  O9107     0.92424      .   S
    C2316  O9108     0.92736      .   S
    C2250  O9108     0.92736      .   S
    C3145  O9109     0.54198      .   S
    C3156  O9109     0.54198      .   S
    C3145  O9110     0.70141      .   S
    C3144  O9110     0.70141      .   S
    C4561  O9111     0.54192      .   S
    C4572  O9111     0.54192      .   S
    C4561  O9112     0.70125      .   S
    C4560  O9112     0.70125      .   S
    C3433  O9113     0.54176      .   S
    C3444  O9113     0.54176      .   S
    C3433  O9114     0.70201      .   S
    C3432  O9114     0.70201      .   S
    C4084  O9115     0.69991      .   S
    C4085  O9115     0.69991      .   S
    C3217  O9116     0.54166      .   S
    C3228  O9116     0.54166      .   S
    C3217  O9117     0.70203      .   S
    C3216  O9117     0.70203      .   S
    C2833  O9118     0.54173      .   S
    C2844  O9118     0.54173      .   S
    C2833  O9119     0.70184      .   S
    C2832  O9119     0.70184      .   S
    C4465  O9120     0.54144      .   S
    C4476  O9120     0.54144      .   S
    C4465  O9121     0.70116      .   S
    C4464  O9121     0.70116      .   S
    C4493  O9122     0.70511      .   S
    C4488  O9122     0.70511      .   S
    C4493  O9123     0.54038      .   S
    C4503  O9123     0.54038      .   S
    C4397  O9124     0.54004      .   S
    C4407  O9124     0.54004      .   S
    C4397  O9125     0.70480      .   S
    C4392  O9125     0.70480      .   S
    C4283  O9126     0.54071      .   S
    C4271  O9126     0.54071      .   S
    C4081  O9127     0.54180      .   S
    C4092  O9127     0.54180      .   S
    C4081  O9128     0.70134      .   S
    C4080  O9128     0.70134      .   S
    C2957  O9129     0.70531      .   S
    C2952  O9129     0.70531      .   S
    C2957  O9130     0.54011      .   S
    C2967  O9130     0.54011      .   S
    C4488  O9131     0.74317      .   S
    C4487  O9131     0.74317      .   S
    C4469  O9132     0.70563      .   S
    C4464  O9132     0.70563      .   S
    C4469  O9133     0.54032      .   S
    C4479  O9133     0.54032      .   S
    C3509  O9134     0.54026      .   S
    C3519  O9134     0.54026      .   S
    C3509  O9135     0.70466      .   S
    C3504  O9135     0.70466      .   S
    C4565  O9136     0.70447      .   S
    C4560  O9136     0.70447      .   S
    C4565  O9137     0.54046      .   S
    C4575  O9137     0.54046      .   S
    C3149  O9138     0.70511      .   S
    C3144  O9138     0.70511      .   S
    C3149  O9139     0.54015      .   S
    C3159  O9139     0.54015      .   S
    C3437  O9140     0.70536      .   S
    C3432  O9140     0.70536      .   S
    C3437  O9141     0.54017      .   S
    C3447  O9141     0.54017      .   S
    C2765  O9142     0.53987      .   S
    C2775  O9142     0.53987      .   S
    C2765  O9143     0.70535      .   S
    C2760  O9143     0.70535      .   S
    C2837  O9144     0.70514      .   S
    C2832  O9144     0.70514      .   S
    C2837  O9145     0.54025      .   S
    C2847  O9145     0.54025      .   S
    C4393  O9146     0.70220      .   S
    C4392  O9146     0.70220      .   S
    C4393  O9147     0.54173      .   S
    C4404  O9147     0.54173      .   S
    C3029  O9148     0.54014      .   S
    C3039  O9148     0.54014      .   S
    C3029  O9149     0.70513      .   S
    C3024  O9149     0.70513      .   S
    C4205  O9150     0.54050      .   S
    C4215  O9150     0.54050      .   S
    C4205  O9151     0.70465      .   S
    C4200  O9151     0.70465      .   S
    C2952  O9152     0.74283      .   S
    C2951  O9152     0.74283      .   S
    C4013  O9153     0.70475      .   S
    C4008  O9153     0.70475      .   S
    C4013  O9154     0.54061      .   S
    C4023  O9154     0.54061      .   S
    C3221  O9155     0.70500      .   S
    C3216  O9155     0.70500      .   S
    C3221  O9156     0.54030      .   S
    C3231  O9156     0.54030      .   S
    C4560  O9157     0.74116      .   S
    C4559  O9157     0.74116      .   S
    C3144  O9158     0.74315      .   S
    C3143  O9158     0.74315      .   S
    C3432  O9159     0.74312      .   S
    C3431  O9159     0.74312      .   S
    C3505  O9160     0.70200      .   S
    C3504  O9160     0.70200      .   S
    C3505  O9161     0.54197      .   S
    C3516  O9161     0.54197      .   S
    C887   O9162     0.93111      .   S
    C979   O9162     0.93111      .   S
    C4464  O9163     0.74253      .   S
    C4463  O9163     0.74253      .   S
    C2761  O9164     0.70216      .   S
    C2760  O9164     0.70216      .   S
    C2761  O9165     0.54170      .   S
    C2772  O9165     0.54170      .   S
    C953   O9166     0.92983      .   S
    C979   O9166     0.92983  1_545   S
    C2832  O9167     0.74248      .   S
    C2831  O9167     0.74248      .   S
    C4272  O9168     0.74386      .   S
    C4271  O9168     0.74386      .   S
    C4272  O9169     0.70499      .   S
    C4277  O9169     0.70499      .   S
    C4008  O9170     0.74357      .   S
    C4007  O9170     0.74357      .   S
    C923   O9171     0.93052      .   S
    C981   O9171     0.93052      .   S
    C845   O9172     0.93064      .   S
    C981   O9172     0.93064  1_655   S
    C3216  O9173     0.74333      .   S
    C3215  O9173     0.74333      .   S
    C4392  O9174     0.74317      .   S
    C4391  O9174     0.74317      .   S
    C959   O9175     0.92435      .   S
    C977   O9175     0.92435  1_565   S
    C851   O9176     0.92859      .   S
    C983   O9176     0.92859      .   S
    C3025  O9177     0.70246      .   S
    C3024  O9177     0.70246      .   S
    C3025  O9178     0.54145      .   S
    C3036  O9178     0.54145      .   S
    C881   O9179     0.92624      .   S
    C977   O9179     0.92624      .   S
    C2257  O9180     0.92591      .   S
    C2331  O9180     0.92591      .   S
    C4499  O9181     0.54077      .   S
    C4487  O9181     0.54077      .   S
    C2191  O9182     0.92849      .   S
    C2331  O9182     0.92849      .   S
    C4201  O9183     0.70203      .   S
    C4200  O9183     0.70203      .   S
    C4201  O9184     0.54166      .   S
    C4212  O9184     0.54166      .   S
    C917   O9185     0.92586      .   S
    C983   O9185     0.92586  1_655   S
    C4085  O9186     0.70481      .   S
    C4080  O9186     0.70481      .   S
    C4085  O9187     0.54018      .   S
    C4095  O9187     0.54018      .   S
    C2185  O9188     0.92971      .   S
    C2329  O9188     0.92971      .   S
    C4402  O9189     0.54087      .   S
    C4390  O9189     0.54087      .   S
    C3504  O9190     0.74218      .   S
    C3503  O9190     0.74218      .   S
    C2227  O9191     0.92725      .   S
    C2319  O9191     0.92725      .   S
    C2293  O9192     0.92995      .   S
    C2319  O9192     0.92995      .   S
    C3514  O9193     0.54053      .   S
    C3502  O9193     0.54053      .   S
    C2263  O9194     0.92696      .   S
    C2329  O9194     0.92696      .   S
    C2760  O9195     0.74484      .   S
    C2759  O9195     0.74484      .   S
    C4080  O9196     0.74258      .   S
    C4079  O9196     0.74258      .   S
    C2963  O9197     0.54057      .   S
    C2951  O9197     0.54057      .   S
    C4399  O9198     0.54142      .   S
    C4385  O9198     0.54142      .   S
    C3511  O9199     0.54149      .   S
    C3497  O9199     0.54149      .   S
    C868   O9200     0.63545      .   S
    C870   O9200     0.63545      .   S
    C946   O9201     0.63489      .   S
    C948   O9201     0.63489      .   S
    C904   O9202     0.63546      .   S
    C906   O9202     0.63546      .   S
    C3024  O9203     0.74560      .   S
    C3023  O9203     0.74560      .   S
    C3155  O9204     0.54076      .   S
    C3143  O9204     0.54076      .   S
    C4571  O9205     0.54104      .   S
    C4559  O9205     0.54104      .   S
    C832   O9206     0.63507      .   S
    C834   O9206     0.63507      .   S
    C2221  O9207     0.93007      .   S
    C2317  O9207     0.93007      .   S
    C4019  O9208     0.54101      .   S
    C4007  O9208     0.54101      .   S
    C940   O9209     0.63515      .   S
    C942   O9209     0.63515      .   S
    C4487  O9210     0.67096      .   S
    C4486  O9210     0.67096      .   S
    C838   O9211     0.63564      .   S
    C840   O9211     0.63564      .   S
    C4496  O9212     0.54032      .   S
    C4483  O9212     0.54032      .   S
    C4210  O9213     0.54067      .   S
    C4198  O9213     0.54067      .   S
    C4207  O9214     0.54162      .   S
    C4193  O9214     0.54162      .   S
    C4276  O9215     0.69987      .   S
    C4277  O9215     0.69987      .   S
    C4276  O9216     0.54155      .   S
    C4286  O9216     0.54155      .   S
    C4200  O9217     0.74344      .   S
    C4199  O9217     0.74344      .   S
    C3034  O9218     0.54027      .   S
    C3022  O9218     0.54027      .   S
    C910   O9219     0.63560      .   S
    C912   O9219     0.63560      .   S
    C4475  O9220     0.54058      .   S
    C4463  O9220     0.54058      .   S
    C2299  O9221     0.92852      .   S
    C2317  O9221     0.92852      .   S
    C2214  O9222     0.63446      .   S
    C2216  O9222     0.63446      .   S
    C874   O9223     0.63527      .   S
    C876   O9223     0.63527      .   S
    C3443  O9224     0.54079      .   S
    C3431  O9224     0.54079      .   S
    C2960  O9225     0.54062      .   S
    C2947  O9225     0.54062      .   S
    C3227  O9226     0.54057      .   S
    C3215  O9226     0.54057      .   S
    C3152  O9227     0.54051      .   S
    C3139  O9227     0.54051      .   S
    C2843  O9228     0.54113      .   S
    C2831  O9228     0.54113      .   S
    C4568  O9229     0.54070      .   S
    C4555  O9229     0.54070      .   S
    C3031  O9230     0.54166      .   S
    C3017  O9230     0.54166      .   S
    C2280  O9231     0.63533      .   S
    C2282  O9231     0.63533      .   S
    C2244  O9232     0.63478      .   S
    C2246  O9232     0.63478      .   S
    C2840  O9233     0.54073      .   S
    C2827  O9233     0.54073      .   S
    C2951  O9234     0.67019      .   S
    C2950  O9234     0.67019      .   S
    C2178  O9235     0.63531      .   S
    C2180  O9235     0.63531      .   S
    C4016  O9236     0.54059      .   S
    C4003  O9236     0.54059      .   S
    C4271  O9237     0.67163      .   S
    C4270  O9237     0.67163      .   S
    C2770  O9238     0.54010      .   S
    C2758  O9238     0.54010      .   S
    C4472  O9239     0.54055      .   S
    C4459  O9239     0.54055      .   S
    C3440  O9240     0.54066      .   S
    C3427  O9240     0.54066      .   S
    C2208  O9241     0.63460      .   S
    C2210  O9241     0.63460      .   S
    C2286  O9242     0.63586      .   S
    C2288  O9242     0.63586      .   S
    C4463  O9243     0.67024      .   S
    C4462  O9243     0.67024      .   S
    C3143  O9244     0.67114      .   S
    C3142  O9244     0.67114      .   S
    C4559  O9245     0.67024      .   S
    C4558  O9245     0.67024      .   S
    C3224  O9246     0.54048      .   S
    C3211  O9246     0.54048      .   S
    C3431  O9247     0.67096      .   S
    C3430  O9247     0.67096      .   S
    C2831  O9248     0.67087      .   S
    C2830  O9248     0.67087      .   S
    C1003  O9249     0.54148      .   S
    C1002  O9249     0.54148      .   S
    C4007  O9250     0.67166      .   S
    C4006  O9250     0.67166      .   S
    C2172  O9251     0.63499      .   S
    C2174  O9251     0.63499      .   S
    C985   O9252     0.54168      .   S
    C984   O9252     0.54168      .   S
    C4280  O9253     0.54052      .   S
    C4267  O9253     0.54052      .   S
    C2250  O9254     0.63502      .   S
    C2252  O9254     0.63502      .   S
    C3215  O9255     0.67112      .   S
    C3214  O9255     0.67112      .   S
    C988   O9256     0.54188      .   S
    C987   O9256     0.54188      .   S
    C4091  O9257     0.54114      .   S
    C4079  O9257     0.54114      .   S
    C2354  O9258     0.54137      .   S
    C2353  O9258     0.54137      .   S
    C1006  O9259     0.54147      .   S
    C1005  O9259     0.54147      .   S
    C4088  O9260     0.54037      .   S
    C4075  O9260     0.54037      .   S
    C2767  O9261     0.54182      .   S
    C2753  O9261     0.54182      .   S
    C2336  O9262     0.54155      .   S
    C2335  O9262     0.54155      .   S
    C4391  O9263     0.67139      .   S
    C4390  O9263     0.67139      .   S
    C4391  O9264     0.54091      .   S
    C4403  O9264     0.54091      .   S
    C4390  O9265     0.74263      .   S
    C4386  O9265     0.74263      .   S
    C2333  O9266     0.54176      .   S
    C2332  O9266     0.54176      .   S
    C2351  O9267     0.54161      .   S
    C2350  O9267     0.54161      .   S
    C3502  O9268     0.67093      .   S
    C3503  O9268     0.67093      .   S
    C3502  O9269     0.74189      .   S
    C3498  O9269     0.74189      .   S
    C4079  O9270     0.67107      .   S
    C4078  O9270     0.67107      .   S
    C4277  O9271     0.54030      .   S
    C4287  O9271     0.54030      .   S
    C3503  O9272     0.54068      .   S
    C3515  O9272     0.54068      .   S
    C3022  O9273     0.67222      .   S
    C3023  O9273     0.67222      .   S
    C3022  O9274     0.74478      .   S
    C3018  O9274     0.74478      .   S
    C2759  O9275     0.67145      .   S
    C2758  O9275     0.67145      .   S
    C2759  O9276     0.54060      .   S
    C2771  O9276     0.54060      .   S
    C3023  O9277     0.54098      .   S
    C3035  O9277     0.54098      .   S
    C4198  O9278     0.67094      .   S
    C4199  O9278     0.67094      .   S
    C4198  O9279     0.74313      .   S
    C4194  O9279     0.74313      .   S
    C2758  O9280     0.74335      .   S
    C2754  O9280     0.74335      .   S
    C4385  O9281     0.70165      .   S
    C4386  O9281     0.70165      .   S
    C4385  O9282     0.69872      .   S
    C4384  O9282     0.69872      .   S
    C979   O9283     0.92932      .   S
    C905   O9283     0.92932      .   S
    C979   O9284     0.93104  1_545   S
    C839   O9284     0.93104      .   S
    C4199  O9285     0.54120      .   S
    C4211  O9285     0.54120      .   S
    C981   O9286     0.93058      .   S
    C869   O9286     0.93058      .   S
    C981   O9287     0.92979  1_655   S
    C947   O9287     0.92979      .   S
    C3497  O9288     0.70114      .   S
    C3498  O9288     0.70114      .   S
    C3497  O9289     0.69801      .   S
    C3496  O9289     0.69801      .   S
    C4486  O9290     0.54050      .   S
    C4498  O9290     0.54050      .   S
    C4486  O9291     0.74275      .   S
    C4482  O9291     0.74275      .   S
    C977   O9292     0.92631  1_565   S
    C833   O9292     0.92631      .   S
    C977   O9293     0.92506      .   S
    C911   O9293     0.92506      .   S
    C983   O9294     0.92555      .   S
    C941   O9294     0.92555      .   S
    C983   O9295     0.92872  1_655   S
    C875   O9295     0.92872      .   S
    C4462  O9296     0.54068      .   S
    C4474  O9296     0.54068      .   S
    C4462  O9297     0.74171      .   S
    C4458  O9297     0.74171      .   S
    C2331  O9298     0.92728      .   S
    C2215  O9298     0.92728      .   S
    C2331  O9299     0.92484      .   S
    C2281  O9299     0.92484      .   S
    C4483  O9300     0.70492      .   S
    C4482  O9300     0.70492      .   S
    C4483  O9301     0.70080      .   S
    C4484  O9301     0.70080      .   S
    C2950  O9302     0.54052      .   S
    C2962  O9302     0.54052      .   S
    C2950  O9303     0.74250      .   S
    C2946  O9303     0.74250      .   S
    C4193  O9304     0.70015      .   S
    C4194  O9304     0.70015      .   S
    C4193  O9305     0.69796      .   S
    C4192  O9305     0.69796      .   S
    C3017  O9306     0.70177      .   S
    C3018  O9306     0.70177      .   S
    C3017  O9307     0.69893      .   S
    C3016  O9307     0.69893      .   S
    C2830  O9308     0.54051      .   S
    C2842  O9308     0.54051      .   S
    C2830  O9309     0.74247      .   S
    C2826  O9309     0.74247      .   S
    C3430  O9310     0.54035      .   S
    C3442  O9310     0.54035      .   S
    C3430  O9311     0.74284      .   S
    C3426  O9311     0.74284      .   S
    C2947  O9312     0.70469      .   S
    C2946  O9312     0.70469      .   S
    C2947  O9313     0.70062      .   S
    C2948  O9313     0.70062      .   S
    C3142  O9314     0.54051      .   S
    C3154  O9314     0.54051      .   S
    C3142  O9315     0.74302      .   S
    C3138  O9315     0.74302      .   S
    C2319  O9316     0.92973      .   S
    C2245  O9316     0.92973      .   S
    C2319  O9317     0.92693      .   S
    C2179  O9317     0.92693      .   S
    C2329  O9318     0.92922      .   S
    C2209  O9318     0.92922      .   S
    C2329  O9319     0.92656      .   S
    C2287  O9319     0.92656      .   S
    C3139  O9320     0.70460      .   S
    C3138  O9320     0.70460      .   S
    C3139  O9321     0.70006      .   S
    C3140  O9321     0.70006      .   S
    C4558  O9322     0.54087      .   S
    C4570  O9322     0.54087      .   S
    C4558  O9323     0.74093      .   S
    C4554  O9323     0.74093      .   S
    C4459  O9324     0.70477      .   S
    C4458  O9324     0.70477      .   S
    C4459  O9325     0.70049      .   S
    C4460  O9325     0.70049      .   S
    C2827  O9326     0.70462      .   S
    C2826  O9326     0.70462      .   S
    C2827  O9327     0.69988      .   S
    C2828  O9327     0.69988      .   S
    C4555  O9328     0.70381      .   S
    C4554  O9328     0.70381      .   S
    C4555  O9329     0.69881      .   S
    C4556  O9329     0.69881      .   S
    C3427  O9330     0.70403      .   S
    C3426  O9330     0.70403      .   S
    C3427  O9331     0.69962      .   S
    C3428  O9331     0.69962      .   S
    C3510  O9332     0.54021      .   S
    C3496  O9332     0.54021      .   S
    C906   O9333     0.63564      .   S
    C905   O9333     0.63564      .   S
    C906   O9334     0.74221      .   S
    C907   O9334     0.74221      .   S
    C870   O9335     0.63569      .   S
    C869   O9335     0.63569      .   S
    C870   O9336     0.74302      .   S
    C871   O9336     0.74302      .   S
    C948   O9337     0.63586      .   S
    C947   O9337     0.63586      .   S
    C948   O9338     0.74160      .   S
    C949   O9338     0.74160      .   S
    C4398  O9339     0.54053      .   S
    C4384  O9339     0.54053      .   S
    C4497  O9340     0.54075      .   S
    C4484  O9340     0.54075      .   S
    C3214  O9341     0.54031      .   S
    C3226  O9341     0.54031      .   S
    C3214  O9342     0.74337      .   S
    C3210  O9342     0.74337      .   S
    C3153  O9343     0.54031      .   S
    C3140  O9343     0.54031      .   S
    C834   O9344     0.63525      .   S
    C833   O9344     0.63525      .   S
    C834   O9345     0.74141      .   S
    C835   O9345     0.74141      .   S
    C840   O9346     0.63539      .   S
    C839   O9346     0.63539      .   S
    C840   O9347     0.74328      .   S
    C841   O9347     0.74328      .   S
    C4206  O9348     0.53979      .   S
    C4192  O9348     0.53979      .   S
    C3211  O9349     0.70407      .   S
    C3210  O9349     0.70407      .   S
    C3211  O9350     0.70032      .   S
    C3212  O9350     0.70032      .   S
    C4003  O9351     0.69965      .   S
    C4004  O9351     0.69965      .   S
    C4003  O9352     0.70401      .   S
    C4002  O9352     0.70401      .   S
    C942   O9353     0.63527      .   S
    C941   O9353     0.63527      .   S
    C942   O9354     0.74107      .   S
    C943   O9354     0.74107      .   S
    C2753  O9355     0.70099      .   S
    C2754  O9355     0.70099      .   S
    C2753  O9356     0.69675      .   S
    C2752  O9356     0.69675      .   S
    C2317  O9357     0.93088      .   S
    C2173  O9357     0.93088      .   S
    C2317  O9358     0.92974      .   S
    C2251  O9358     0.92974      .   S
    C2961  O9359     0.54070      .   S
    C2948  O9359     0.54070      .   S
    C4569  O9360     0.54049      .   S
    C4556  O9360     0.54049      .   S
    C4006  O9361     0.54077      .   S
    C4018  O9361     0.54077      .   S
    C4006  O9362     0.74366      .   S
    C4002  O9362     0.74366      .   S
    C2216  O9363     0.63606      .   S
    C2215  O9363     0.63606      .   S
    C2216  O9364     0.74007      .   S
    C2217  O9364     0.74007      .   S
    C4386  O9365     0.70369      .   S
    C4387  O9365     0.70369      .   S
    C912   O9366     0.63469      .   S
    C911   O9366     0.63469      .   S
    C912   O9367     0.74086      .   S
    C913   O9367     0.74086      .   S
    C876   O9368     0.63530      .   S
    C875   O9368     0.63530      .   S
    C876   O9369     0.74130      .   S
    C877   O9369     0.74130      .   S
    C4281  O9370     0.54067      .   S
    C4268  O9370     0.54067      .   S
    C3030  O9371     0.54043      .   S
    C3016  O9371     0.54043      .   S
    C4017  O9372     0.54072      .   S
    C4004  O9372     0.54072      .   S
    C1002  O9373     0.70294      .   S
    C907   O9373     0.70294      .   S
    C1002  O9374     0.70344      .   S
    C871   O9374     0.70344      .   S
    C2841  O9375     0.54060      .   S
    C2828  O9375     0.54060      .   S
    C984   O9376     0.70427      .   S
    C949   O9376     0.70427      .   S
    C984   O9377     0.70256      .   S
    C835   O9377     0.70256      .   S
    C3441  O9378     0.54059      .   S
    C3428  O9378     0.54059      .   S
    C3498  O9379     0.70381      .   S
    C3499  O9379     0.70381      .   S
    C2246  O9380     0.63574      .   S
    C2245  O9380     0.63574      .   S
    C2246  O9381     0.74114      .   S
    C2247  O9381     0.74114      .   S
    C2282  O9382     0.63493      .   S
    C2281  O9382     0.63493      .   S
    C2282  O9383     0.74046      .   S
    C2283  O9383     0.74046      .   S
    C987   O9384     0.70203      .   S
    C943   O9384     0.70203      .   S
    C987   O9385     0.70413      .   S
    C841   O9385     0.70413      .   S
    C4473  O9386     0.54089      .   S
    C4460  O9386     0.54089      .   S
    C3225  O9387     0.54055      .   S
    C3212  O9387     0.54055      .   S
    C4267  O9388     0.70050      .   S
    C4268  O9388     0.70050      .   S
    C4267  O9389     0.70441      .   S
    C4266  O9389     0.70441      .   S
    C2180  O9390     0.63536      .   S
    C2179  O9390     0.63536      .   S
    C2180  O9391     0.74139      .   S
    C2181  O9391     0.74139      .   S
    C2288  O9392     0.63544      .   S
    C2287  O9392     0.63544      .   S
    C2288  O9393     0.74210      .   S
    C2289  O9393     0.74210      .   S
    C1005  O9394     0.70229      .   S
    C913   O9394     0.70229      .   S
    C1005  O9395     0.70330      .   S
    C877   O9395     0.70330      .   S
    C2353  O9396     0.70290      .   S
    C2217  O9396     0.70290      .   S
    C2353  O9397     0.70409      .   S
    C2247  O9397     0.70409      .   S
    C2210  O9398     0.63584      .   S
    C2209  O9398     0.63584      .   S
    C2210  O9399     0.74041      .   S
    C2211  O9399     0.74041      .   S
    C4075  O9400     0.69844      .   S
    C4076  O9400     0.69844      .   S
    C4075  O9401     0.70307      .   S
    C4074  O9401     0.70307      .   S
    C4089  O9402     0.54055      .   S
    C4076  O9402     0.54055      .   S
    C3018  O9403     0.70444      .   S
    C3019  O9403     0.70444      .   S
    C4078  O9404     0.54069      .   S
    C4090  O9404     0.54069      .   S
    C4078  O9405     0.74279      .   S
    C4074  O9405     0.74279      .   S
    C2174  O9406     0.63566      .   S
    C2173  O9406     0.63566      .   S
    C2174  O9407     0.74160      .   S
    C2175  O9407     0.74160      .   S
    C2335  O9408     0.70267      .   S
    C2181  O9408     0.70267      .   S
    C2335  O9409     0.70275      .   S
    C2289  O9409     0.70275      .   S
    C2252  O9410     0.63559      .   S
    C2251  O9410     0.63559      .   S
    C2252  O9411     0.74235      .   S
    C2253  O9411     0.74235      .   S
    C4482  O9412     0.70064      .   S
    C4481  O9412     0.70064      .   S
    C4194  O9413     0.70368      .   S
    C4195  O9413     0.70368      .   S
    C2332  O9414     0.70194      .   S
    C2283  O9414     0.70194      .   S
    C2332  O9415     0.70339      .   S
    C2175  O9415     0.70339      .   S
    C3496  O9416     0.70325      .   S
    C3501  O9416     0.70325      .   S
    C4384  O9417     0.70318      .   S
    C4389  O9417     0.70318      .   S
    C2754  O9418     0.70510      .   S
    C2755  O9418     0.70510      .   S
    C2350  O9419     0.70262      .   S
    C2211  O9419     0.70262      .   S
    C2350  O9420     0.70367      .   S
    C2253  O9420     0.70367      .   S
    C2766  O9421     0.54031      .   S
    C2752  O9421     0.54031      .   S
    C4270  O9422     0.74327      .   S
    C4266  O9422     0.74327      .   S
    C4270  O9423     0.54062      .   S
    C4282  O9423     0.54062      .   S
    C4458  O9424     0.70037      .   S
    C4457  O9424     0.70037      .   S
    C2946  O9425     0.70040      .   S
    C2945  O9425     0.70040      .   S
    C4484  O9426     0.70324      .   S
    C4485  O9426     0.70324      .   S
    C2826  O9427     0.70065      .   S
    C2825  O9427     0.70065      .   S
    C3426  O9428     0.70101      .   S
    C3425  O9428     0.70101      .   S
    C3016  O9429     0.70350      .   S
    C3021  O9429     0.70350      .   S
    C3138  O9430     0.70081      .   S
    C3137  O9430     0.70081      .   S
    C4192  O9431     0.70570      .   S
    C4197  O9431     0.70570      .   S
    C2948  O9432     0.70283      .   S
    C2949  O9432     0.70283      .   S
    C3140  O9433     0.70354      .   S
    C3141  O9433     0.70354      .   S
    C4554  O9434     0.70068      .   S
    C4553  O9434     0.70068      .   S
    C4460  O9435     0.70285      .   S
    C4461  O9435     0.70285      .   S
    C4556  O9436     0.70318      .   S
    C4557  O9436     0.70318      .   S
    C2828  O9437     0.70265      .   S
    C2829  O9437     0.70265      .   S
    C3428  O9438     0.70319      .   S
    C3429  O9438     0.70319      .   S
    C3210  O9439     0.70104      .   S
    C3209  O9439     0.70104      .   S
    C3212  O9440     0.70335      .   S
    C3213  O9440     0.70335      .   S
    C4004  O9441     0.70360      .   S
    C4005  O9441     0.70360      .   S
    C2752  O9442     0.70335      .   S
    C2757  O9442     0.70335      .   S
    C4002  O9443     0.70150      .   S
    C4001  O9443     0.70150      .   S
    C4268  O9444     0.70329      .   S
    C4269  O9444     0.70329      .   S
    C907   O9445     0.70214      .   S
    C908   O9445     0.70214      .   S
    C871   O9446     0.70386      .   S
    C872   O9446     0.70386      .   S
    C949   O9447     0.70339      .   S
    C950   O9447     0.70339      .   S
    C835   O9448     0.70153      .   S
    C836   O9448     0.70153      .   S
    C943   O9449     0.70078      .   S
    C944   O9449     0.70078      .   S
    C841   O9450     0.70491      .   S
    C842   O9450     0.70491      .   S
    C4076  O9451     0.70516      .   S
    C4077  O9451     0.70516      .   S
    C2217  O9452     0.70082      .   S
    C2218  O9452     0.70082      .   S
    C913   O9453     0.70183      .   S
    C914   O9453     0.70183      .   S
    C877   O9454     0.70344      .   S
    C878   O9454     0.70344      .   S
    C2247  O9455     0.70263      .   S
    C2248  O9455     0.70263      .   S
    C361   O9456     0.53987      .   S
    C359   O9456     0.53987      .   S
    C4074  O9457     0.70103      .   S
    C4073  O9457     0.70103      .   S
    C249   O9458     0.54002      .   S
    C246   O9458     0.54002      .   S
    C4266  O9459     0.70085      .   S
    C4265  O9459     0.70085      .   S
    C283   O9460     0.54001      .   S
    C281   O9460     0.54001      .   S
    C2283  O9461     0.70109      .   S
    C2284  O9461     0.70109      .   S
    C569   O9462     0.54016      .   S
    C567   O9462     0.54016      .   S
    C465   O9463     0.54024      .   S
    C463   O9463     0.54024      .   S
    C275   O9464     0.53962      .   S
    C272   O9464     0.53962      .   S
    C2181  O9465     0.70230      .   S
    C2182  O9465     0.70230      .   S
    C2289  O9466     0.70357      .   S
    C2290  O9466     0.70357      .   S
    C379   O9467     0.54074      .   S
    C376   O9467     0.54074      .   S
    C491   O9468     0.54033      .   S
    C489   O9468     0.54033      .   S
    C2211  O9469     0.70121      .   S
    C2212  O9469     0.70121      .   S
    C2175  O9470     0.70395      .   S
    C2176  O9470     0.70395      .   S
    C353   O9471     0.53991      .   S
    C350   O9471     0.53991      .   S
    C2253  O9472     0.70381      .   S
    C2254  O9472     0.70381      .   S
    C587   O9473     0.53964      .   S
    C584   O9473     0.53964      .   S
    C257   O9474     0.53981      .   S
    C255   O9474     0.53981      .   S
    C595   O9475     0.53998      .   S
    C593   O9475     0.53998      .   S
    C561   O9476     0.54053      .   S
    C558   O9476     0.54053      .   S
    C483   O9477     0.54009      .   S
    C480   O9477     0.54009      .   S
    C387   O9478     0.54000      .   S
    C385   O9478     0.54000      .   S
    C457   O9479     0.53987      .   S
    C454   O9479     0.53987      .   S
    C4387  O9480     0.54039      .   S
    C4400  O9480     0.54039      .   S
    C4387  O9481     0.69900      .   S
    C4388  O9481     0.69900      .   S
    C3499  O9482     0.54037      .   S
    C3512  O9482     0.54037      .   S
    C3499  O9483     0.69917      .   S
    C3500  O9483     0.69917      .   S
    C2755  O9484     0.54029      .   S
    C2768  O9484     0.54029      .   S
    C2755  O9485     0.70142      .   S
    C2756  O9485     0.70142      .   S
    C3019  O9486     0.54054      .   S
    C3032  O9486     0.54054      .   S
    C3019  O9487     0.70113      .   S
    C3020  O9487     0.70113      .   S
    C4389  O9488     0.70338      .   S
    C4388  O9488     0.70338      .   S
    C4389  O9489     0.74357      .   S
    C462   O9489     0.74357      .   S
    C3501  O9490     0.70325      .   S
    C3500  O9490     0.70325      .   S
    C3501  O9491     0.74289      .   S
    C358   O9491     0.74289      .   S
    C4481  O9492     0.54183      .   S
    C4495  O9492     0.54183      .   S
    C4481  O9493     0.69726      .   S
    C4480  O9493     0.69726      .   S
    C4457  O9494     0.54178      .   S
    C4471  O9494     0.54178      .   S
    C4457  O9495     0.69667      .   S
    C4456  O9495     0.69667      .   S
    C4195  O9496     0.54052      .   S
    C4208  O9496     0.54052      .   S
    C4195  O9497     0.70081      .   S
    C4196  O9497     0.70081      .   S
    C2945  O9498     0.54179      .   S
    C2959  O9498     0.54179      .   S
    C2945  O9499     0.69751      .   S
    C2944  O9499     0.69751      .   S
    C3021  O9500     0.70379      .   S
    C3020  O9500     0.70379      .   S
    C3021  O9501     0.74571      .   S
    C273   O9501     0.74571      .   S
    C2825  O9502     0.54194      .   S
    C2839  O9502     0.54194      .   S
    C2825  O9503     0.69829      .   S
    C2824  O9503     0.69829      .   S
    C3425  O9504     0.54178      .   S
    C3439  O9504     0.54178      .   S
    C3425  O9505     0.69822      .   S
    C3424  O9505     0.69822      .   S
    C4485  O9506     0.70345      .   S
    C4480  O9506     0.70345      .   S
    C4485  O9507     0.74420      .   S
    C566   O9507     0.74420      .   S
    C3137  O9508     0.54166      .   S
    C3151  O9508     0.54166      .   S
    C3137  O9509     0.69814      .   S
    C3136  O9509     0.69814      .   S
    C4461  O9510     0.70360      .   S
    C4456  O9510     0.70360      .   S
    C4461  O9511     0.74322      .   S
    C488   O9511     0.74322      .   S
    C2949  O9512     0.70351      .   S
    C2944  O9512     0.70351      .   S
    C2949  O9513     0.74367      .   S
    C247   O9513     0.74367      .   S
    C2757  O9514     0.70314      .   S
    C2756  O9514     0.70314      .   S
    C2757  O9515     0.74372      .   S
    C351   O9515     0.74372      .   S
    C3141  O9516     0.70365      .   S
    C3136  O9516     0.70365      .   S
    C3141  O9517     0.74443      .   S
    C280   O9517     0.74443      .   S
    C4197  O9518     0.70544      .   S
    C4196  O9518     0.70544      .   S
    C4197  O9519     0.70753      .   S
    C585   O9519     0.70753      .   S
    C3429  O9520     0.70361      .   S
    C3424  O9520     0.70361      .   S
    C3429  O9521     0.74416      .   S
    C384   O9521     0.74416      .   S
    C2829  O9522     0.70333      .   S
    C2824  O9522     0.70333      .   S
    C2829  O9523     0.74256      .   S
    C377   O9523     0.74256      .   S
    C4553  O9524     0.54192      .   S
    C4567  O9524     0.54192      .   S
    C4553  O9525     0.69760      .   S
    C4552  O9525     0.69760      .   S
    C359   O9526     0.69242      .   S
    C358   O9526     0.69242      .   S
    C359   O9527     0.67235      .   S
    C355   O9527     0.67235      .   S
    C4557  O9528     0.70372      .   S
    C4552  O9528     0.70372      .   S
    C4557  O9529     0.74316      .   S
    C592   O9529     0.74316      .   S
    C463   O9530     0.69327      .   S
    C462   O9530     0.69327      .   S
    C463   O9531     0.67324      .   S
    C459   O9531     0.67324      .   S
    C3209  O9532     0.54193      .   S
    C3223  O9532     0.54193      .   S
    C3209  O9533     0.69869      .   S
    C3208  O9533     0.69869      .   S
    C272   O9534     0.69367      .   S
    C273   O9534     0.69367      .   S
    C272   O9535     0.67263      .   S
    C271   O9535     0.67263      .   S
    C3213  O9536     0.70358      .   S
    C3208  O9536     0.70358      .   S
    C3213  O9537     0.74461      .   S
    C254   O9537     0.74461      .   S
    C281   O9538     0.69442      .   S
    C280   O9538     0.69442      .   S
    C281   O9539     0.67457      .   S
    C277   O9539     0.67457      .   S
    C567   O9540     0.69484      .   S
    C566   O9540     0.69484      .   S
    C567   O9541     0.67546      .   S
    C563   O9541     0.67546      .   S
    C246   O9542     0.69485      .   S
    C247   O9542     0.69485      .   S
    C246   O9543     0.67462      .   S
    C245   O9543     0.67462      .   S
    C4388  O9544     0.54059      .   S
    C4401  O9544     0.54059      .   S
    C350   O9545     0.69163      .   S
    C351   O9545     0.69163      .   S
    C350   O9546     0.67070      .   S
    C349   O9546     0.67070      .   S
    C489   O9547     0.69459      .   S
    C488   O9547     0.69459      .   S
    C489   O9548     0.67510      .   S
    C485   O9548     0.67510      .   S
    C4005  O9549     0.74513      .   S
    C481   O9549     0.74513      .   S
    C4005  O9550     0.70389      .   S
    C4000  O9550     0.70389      .   S
    C3500  O9551     0.54062      .   S
    C3513  O9551     0.54062      .   S
    C584   O9552     0.69410      .   S
    C585   O9552     0.69410      .   S
    C584   O9553     0.67129      .   S
    C583   O9553     0.67129      .   S
    C376   O9554     0.69489      .   S
    C377   O9554     0.69489      .   S
    C376   O9555     0.67382      .   S
    C375   O9555     0.67382      .   S
    C4001  O9556     0.54149      .   S
    C4015  O9556     0.54149      .   S
    C4001  O9557     0.69920      .   S
    C4000  O9557     0.69920      .   S
    C950   O9558     0.54166      .   S
    C951   O9558     0.54166      .   S
    C950   O9559     0.70272      .   S
    C986   O9559     0.70272      .   S
    C836   O9560     0.54170      .   S
    C837   O9560     0.54170      .   S
    C836   O9561     0.70128      .   S
    C986   O9561     0.70128      .   S
    C908   O9562     0.54141      .   S
    C909   O9562     0.54141      .   S
    C908   O9563     0.70336      .   S
    C1004  O9563     0.70336      .   S
    C872   O9564     0.54173      .   S
    C873   O9564     0.54173      .   S
    C872   O9565     0.70319      .   S
    C1004  O9565     0.70319      .   S
    C593   O9566     0.69351      .   S
    C592   O9566     0.69351      .   S
    C593   O9567     0.67372      .   S
    C589   O9567     0.67372      .   S
    C255   O9568     0.69425      .   S
    C254   O9568     0.69425      .   S
    C255   O9569     0.67427      .   S
    C251   O9569     0.67427      .   S
    C944   O9570     0.54162      .   S
    C945   O9570     0.54162      .   S
    C944   O9571     0.70137      .   S
    C989   O9571     0.70137      .   S
    C842   O9572     0.54148      .   S
    C843   O9572     0.54148      .   S
    C842   O9573     0.70347      .   S
    C989   O9573     0.70347      .   S
    C4269  O9574     0.74458      .   S
    C559   O9574     0.74458      .   S
    C4269  O9575     0.70372      .   S
    C4264  O9575     0.70372      .   S
    C385   O9576     0.69406      .   S
    C384   O9576     0.69406      .   S
    C385   O9577     0.67359      .   S
    C381   O9577     0.67359      .   S
    C2756  O9578     0.54083      .   S
    C2769  O9578     0.54083      .   S
    C4077  O9579     0.70666      .   S
    C455   O9579     0.70666      .   S
    C4077  O9580     0.70543      .   S
    C4072  O9580     0.70543      .   S
    C914   O9581     0.54168      .   S
    C915   O9581     0.54168      .   S
    C914   O9582     0.70189      .   S
    C1007  O9582     0.70189      .   S
    C558   O9583     0.69481      .   S
    C559   O9583     0.69481      .   S
    C558   O9584     0.67390      .   S
    C557   O9584     0.67390      .   S
    C3020  O9585     0.54056      .   S
    C3033  O9585     0.54056      .   S
    C2218  O9586     0.54169      .   S
    C2219  O9586     0.54169      .   S
    C2218  O9587     0.70033      .   S
    C2355  O9587     0.70033      .   S
    C480   O9588     0.69414      .   S
    C481   O9588     0.69414      .   S
    C480   O9589     0.67332      .   S
    C479   O9589     0.67332      .   S
    C878   O9590     0.54183      .   S
    C879   O9590     0.54183      .   S
    C878   O9591     0.70237      .   S
    C1007  O9591     0.70237      .   S
    C454   O9592     0.69518      .   S
    C455   O9592     0.69518      .   S
    C454   O9593     0.67241      .   S
    C453   O9593     0.67241      .   S
    C2248  O9594     0.54177      .   S
    C2249  O9594     0.54177      .   S
    C2248  O9595     0.70174      .   S
    C2355  O9595     0.70174      .   S
    C4073  O9596     0.54167      .   S
    C4087  O9596     0.54167      .   S
    C4073  O9597     0.69928      .   S
    C4072  O9597     0.69928      .   S
    C4480  O9598     0.54022      .   S
    C4494  O9598     0.54022      .   S
    C4456  O9599     0.54020      .   S
    C4470  O9599     0.54020      .   S
    C2284  O9600     0.54154      .   S
    C2285  O9600     0.54154      .   S
    C2284  O9601     0.70176      .   S
    C2334  O9601     0.70176      .   S
    C358   O9602     0.69303      .   S
    C357   O9602     0.69303      .   S
    C462   O9603     0.69324      .   S
    C461   O9603     0.69324      .   S
    C2944  O9604     0.54027      .   S
    C2958  O9604     0.54027      .   S
    C2290  O9605     0.54162      .   S
    C2291  O9605     0.54162      .   S
    C2290  O9606     0.70326      .   S
    C2337  O9606     0.70326      .   S
    C2182  O9607     0.54177      .   S
    C2183  O9607     0.54177      .   S
    C2182  O9608     0.70224      .   S
    C2337  O9608     0.70224      .   S
    C4265  O9609     0.69830      .   S
    C4264  O9609     0.69830      .   S
    C4265  O9610     0.54186      .   S
    C4279  O9610     0.54186      .   S
    C3424  O9611     0.54024      .   S
    C3438  O9611     0.54024      .   S
    C4196  O9612     0.54052      .   S
    C4209  O9612     0.54052      .   S
    C2824  O9613     0.54069      .   S
    C2838  O9613     0.54069      .   S
    C2176  O9614     0.54165      .   S
    C2177  O9614     0.54165      .   S
    C2176  O9615     0.70322      .   S
    C2334  O9615     0.70322      .   S
    C2212  O9616     0.54188      .   S
    C2213  O9616     0.54188      .   S
    C2212  O9617     0.70126      .   S
    C2352  O9617     0.70126      .   S
    C3136  O9618     0.54010      .   S
    C3150  O9618     0.54010      .   S
    C273   O9619     0.69522      .   S
    C274   O9619     0.69522      .   S
    C2254  O9620     0.54150      .   S
    C2255  O9620     0.54150      .   S
    C2254  O9621     0.70318      .   S
    C2352  O9621     0.70318      .   S
    C566   O9622     0.69135      .   S
    C565   O9622     0.69135      .   S
    C351   O9623     0.69533      .   S
    C352   O9623     0.69533      .   S
    C280   O9624     0.69227      .   S
    C279   O9624     0.69227      .   S
    C247   O9625     0.69163      .   S
    C248   O9625     0.69163      .   S
    C488   O9626     0.69066      .   S
    C487   O9626     0.69066      .   S
    C585   O9627     0.69710      .   S
    C586   O9627     0.69710      .   S
    C4552  O9628     0.54020      .   S
    C4566  O9628     0.54020      .   S
    C384   O9629     0.69288      .   S
    C383   O9629     0.69288      .   S
    C3208  O9630     0.54034      .   S
    C3222  O9630     0.54034      .   S
    C592   O9631     0.69227      .   S
    C591   O9631     0.69227      .   S
    C377   O9632     0.69289      .   S
    C378   O9632     0.69289      .   S
    C254   O9633     0.69242      .   S
    C253   O9633     0.69242      .   S
    C481   O9634     0.69412      .   S
    C482   O9634     0.69412      .   S
    C4000  O9635     0.54044      .   S
    C4014  O9635     0.54044      .   S
    C986   O9636     0.74191      .   S
    C2379  O9636     0.74191      .   S
    C559   O9637     0.69284      .   S
    C560   O9637     0.69284      .   S
    C1004  O9638     0.74417      .   S
    C3819  O9638     0.74417      .   S
    C347   O9639     0.98156      .   S
    C355   O9639     0.98156      .   S
    C347   O9640     0.96971      .   S
    C349   O9640     0.96971      .   S
    C455   O9641     0.69570      .   S
    C456   O9641     0.69570      .   S
    C989   O9642     0.74233      .   S
    C2475  O9642     0.74233      .   S
    C269   O9643     0.97542      .   S
    C271   O9643     0.97542      .   S
    C269   O9644     0.98813      .   S
    C277   O9644     0.98813      .   S
    C269   O9645     1.02788      .   S
    C285   O9645     1.02788      .   S
    C269   O9646     1.02782      .   S
    C284   O9646     1.02782      .   S
    C355   O9647     0.65880      .   S
    C356   O9647     0.65880      .   S
    C1007  O9648     0.74267      .   S
    C3723  O9648     0.74267      .   S
    C4072  O9649     0.54034      .   S
    C4086  O9649     0.54034      .   S
    C2355  O9650     0.73942      .   S
    C2451  O9650     0.73942      .   S
    C271   O9651     0.65724      .   S
    C270   O9651     0.65724      .   S
    C349   O9652     0.65692      .   S
    C348   O9652     0.65692      .   S
    C459   O9653     0.98602      .   S
    C451   O9653     0.98602      .   S
    C459   O9654     0.65942      .   S
    C460   O9654     0.65942      .   S
    C243   O9655     0.97778      .   S
    C245   O9655     0.97778      .   S
    C243   O9656     0.98978      .   S
    C251   O9656     0.98978      .   S
    C243   O9657     1.03269      .   S
    C259   O9657     1.03269      .   S
    C243   O9658     1.03079      .   S
    C258   O9658     1.03079      .   S
    C451   O9659     0.97452      .   S
    C453   O9659     0.97452      .   S
    C277   O9660     0.65896      .   S
    C278   O9660     0.65896      .   S
    C555   O9661     0.99133      .   S
    C563   O9661     0.99133      .   S
    C555   O9662     0.97866      .   S
    C557   O9662     0.97866      .   S
    C555   O9663     1.02696      .   S
    C571   O9663     1.02696      .   S
    C555   O9664     1.02521      .   S
    C570   O9664     1.02521      .   S
    C581   O9665     0.97210      .   S
    C583   O9665     0.97210      .   S
    C581   O9666     0.98501      .   S
    C589   O9666     0.98501      .   S
    C581   O9667     1.02956      .   S
    C597   O9667     1.02956      .   S
    C581   O9668     1.02914      .   S
    C596   O9668     1.02914      .   S
    C4264  O9669     0.54036      .   S
    C4278  O9669     0.54036      .   S
    C477   O9670     0.98930      .   S
    C485   O9670     0.98930      .   S
    C477   O9671     0.97624      .   S
    C479   O9671     0.97624      .   S
    C477   O9672     1.02603      .   S
    C493   O9672     1.02603      .   S
    C477   O9673     1.02322      .   S
    C492   O9673     1.02322      .   S
    C563   O9674     0.65943      .   S
    C564   O9674     0.65943      .   S
    C245   O9675     0.65679      .   S
    C244   O9675     0.65679      .   S
    C2334  O9676     0.74211      .   S
    C3795  O9676     0.74211      .   S
    C485   O9677     0.65930      .   S
    C486   O9677     0.65930      .   S
    C583   O9678     0.65684      .   S
    C582   O9678     0.65684      .   S
    C589   O9679     0.65863      .   S
    C590   O9679     0.65863      .   S
    C2337  O9680     0.74286      .   S
    C3891  O9680     0.74286      .   S
    C251   O9681     0.65984      .   S
    C252   O9681     0.65984      .   S
    C557   O9682     0.65717      .   S
    C556   O9682     0.65717      .   S
    C381   O9683     0.98795      .   S
    C373   O9683     0.98795      .   S
    C381   O9684     0.65985      .   S
    C382   O9684     0.65985      .   S
    C2352  O9685     0.74167      .   S
    C2547  O9685     0.74167      .   S
    C453   O9686     0.65660      .   S
    C452   O9686     0.65660      .   S
    C479   O9687     0.65726      .   S
    C478   O9687     0.65726      .   S
    C375   O9688     0.97672      .   S
    C373   O9688     0.97672      .   S
    C375   O9689     0.65662      .   S
    C374   O9689     0.65662      .   S
    C373   O9690     1.01982      .   S
    C389   O9690     1.01982      .   S
    C2389  O9691     0.54144      .   S
    C2378  O9691     0.54144      .   S
    C2485  O9692     0.54170      .   S
    C2474  O9692     0.54170      .   S
    C3829  O9693     0.54178      .   S
    C3818  O9693     0.54178      .   S
    C3733  O9694     0.54136      .   S
    C3722  O9694     0.54136      .   S
    C2461  O9695     0.54163      .   S
    C2450  O9695     0.54163      .   S
    C3805  O9696     0.54136      .   S
    C3794  O9696     0.54136      .   S
    C357   O9697     0.67369      .   S
    C356   O9697     0.67369      .   S
    C357   O9698     0.53996      .   S
    C360   O9698     0.53996      .   S
    C461   O9699     0.67319      .   S
    C460   O9699     0.67319      .   S
    C461   O9700     0.53996      .   S
    C464   O9700     0.53996      .   S
    C2558  O9701     0.54147      .   S
    C2548  O9701     0.54147      .   S
    C3902  O9702     0.54164      .   S
    C3892  O9702     0.54164      .   S
    C274   O9703     0.67514      .   S
    C270   O9703     0.67514      .   S
    C274   O9704     0.54024      .   S
    C276   O9704     0.54024      .   S
    C352   O9705     0.67554      .   S
    C348   O9705     0.67554      .   S
    C352   O9706     0.54029      .   S
    C354   O9706     0.54029      .   S
    C363   O9707     1.02997      .   S
    C346   O9707     1.02997      .   S
    C383   O9708     0.67232      .   S
    C382   O9708     0.67232      .   S
    C383   O9709     0.53960      .   S
    C386   O9709     0.53960      .   S
    C565   O9710     0.67158      .   S
    C564   O9710     0.67158      .   S
    C565   O9711     0.53948      .   S
    C568   O9711     0.53948      .   S
    C279   O9712     0.67264      .   S
    C278   O9712     0.67264      .   S
    C279   O9713     0.53955      .   S
    C282   O9713     0.53955      .   S
    C586   O9714     0.67481      .   S
    C582   O9714     0.67481      .   S
    C586   O9715     0.54015      .   S
    C588   O9715     0.54015      .   S
    C487   O9716     0.67112      .   S
    C486   O9716     0.67112      .   S
    C487   O9717     0.53950      .   S
    C490   O9717     0.53950      .   S
    C248   O9718     0.67161      .   S
    C244   O9718     0.67161      .   S
    C248   O9719     0.53940      .   S
    C250   O9719     0.53940      .   S
    C356   O9720     0.98452      .   S
    C346   O9720     0.98452      .   S
    C591   O9721     0.67205      .   S
    C590   O9721     0.67205      .   S
    C591   O9722     0.53967      .   S
    C594   O9722     0.53967      .   S
    C460   O9723     0.98604      .   S
    C450   O9723     0.98604      .   S
    C467   O9724     1.03301      .   S
    C450   O9724     1.03301      .   S
    C348   O9725     0.97888      .   S
    C345   O9725     0.97888      .   S
    C270   O9726     0.97921      .   S
    C267   O9726     0.97921      .   S
    C253   O9727     0.67265      .   S
    C252   O9727     0.67265      .   S
    C253   O9728     0.53987      .   S
    C256   O9728     0.53987      .   S
    C378   O9729     0.67200      .   S
    C374   O9729     0.67200      .   S
    C378   O9730     0.54069      .   S
    C380   O9730     0.54069      .   S
    C278   O9731     0.98155      .   S
    C268   O9731     0.98155      .   S
    C456   O9732     0.67365      .   S
    C452   O9732     0.67365      .   S
    C456   O9733     0.54000      .   S
    C458   O9733     0.54000      .   S
    C482   O9734     0.67376      .   S
    C478   O9734     0.67376      .   S
    C482   O9735     0.53970      .   S
    C484   O9735     0.53970      .   S
    C560   O9736     0.67247      .   S
    C556   O9736     0.67247      .   S
    C560   O9737     0.53966      .   S
    C562   O9737     0.53966      .   S
    C564   O9738     0.98070      .   S
    C554   O9738     0.98070      .   S
    C582   O9739     0.97852      .   S
    C579   O9739     0.97852      .   S
    C2379  O9740     0.70257      .   S
    C2378  O9740     0.70257      .   S
    C2379  O9741     0.70186      .   S
    C2380  O9741     0.70186      .   S
    C486   O9742     0.97812      .   S
    C476   O9742     0.97812      .   S
    C244   O9743     0.96879      .   S
    C241   O9743     0.96879      .   S
    C382   O9744     0.98572      .   S
    C372   O9744     0.98572      .   S
    C590   O9745     0.98036      .   S
    C580   O9745     0.98036      .   S
    C2378  O9746     0.69769      .   S
    C2377  O9746     0.69769      .   S
    C3819  O9747     0.70263      .   S
    C3818  O9747     0.70263      .   S
    C3819  O9748     0.70313      .   S
    C3820  O9748     0.70313      .   S
    C2475  O9749     0.70297      .   S
    C2474  O9749     0.70297      .   S
    C2475  O9750     0.70196      .   S
    C2476  O9750     0.70196      .   S
    C2474  O9751     0.69743      .   S
    C2473  O9751     0.69743      .   S
    C252   O9752     0.98473      .   S
    C242   O9752     0.98473      .   S
    C3723  O9753     0.70254      .   S
    C3722  O9753     0.70254      .   S
    C3723  O9754     0.70238      .   S
    C3724  O9754     0.70238      .   S
    C3818  O9755     0.69817      .   S
    C3817  O9755     0.69817      .   S
    C452   O9756     0.97345      .   S
    C449   O9756     0.97345      .   S
    C556   O9757     0.97258      .   S
    C553   O9757     0.97258      .   S
    C3722  O9758     0.69779      .   S
    C3721  O9758     0.69779      .   S
    C2451  O9759     0.70238      .   S
    C2450  O9759     0.70238      .   S
    C2451  O9760     0.70125      .   S
    C2452  O9760     0.70125      .   S
    C478   O9761     0.97548      .   S
    C475   O9761     0.97548      .   S
    C2450  O9762     0.69649      .   S
    C2449  O9762     0.69649      .   S
    C374   O9763     0.96758      .   S
    C371   O9763     0.96758      .   S
    C3795  O9764     0.70269      .   S
    C3794  O9764     0.70269      .   S
    C3795  O9765     0.70209      .   S
    C3796  O9765     0.70209      .   S
    C3794  O9766     0.69766      .   S
    C3793  O9766     0.69766      .   S
    C3891  O9767     0.70223      .   S
    C3892  O9767     0.70223      .   S
    C3891  O9768     0.70262      .   S
    C3890  O9768     0.70262      .   S
    C2547  O9769     0.70135      .   S
    C2548  O9769     0.70135      .   S
    C2547  O9770     0.70231      .   S
    C2546  O9770     0.70231      .   S
    C2548  O9771     0.69891      .   S
    C2549  O9771     0.69891      .   S
    C3892  O9772     0.69953      .   S
    C3893  O9772     0.69953      .   S
    C362   O9773     1.03037      .   S
    C346   O9773     1.03037      .   S
    C466   O9774     1.03236      .   S
    C450   O9774     1.03236      .   S
    C3830  O9775     0.54158      .   S
    C3820  O9775     0.54158      .   S
    C2380  O9776     0.54165      .   S
    C2390  O9776     0.54165      .   S
    C2380  O9777     0.69997      .   S
    C2381  O9777     0.69997      .   S
    C3820  O9778     0.70065      .   S
    C3821  O9778     0.70065      .   S
    C2388  O9779     0.54156      .   S
    C2377  O9779     0.54156      .   S
    C2377  O9780     0.70150      .   S
    C2376  O9780     0.70150      .   S
    C2476  O9781     0.54134      .   S
    C2486  O9781     0.54134      .   S
    C2476  O9782     0.70054      .   S
    C2477  O9782     0.70054      .   S
    C3724  O9783     0.54132      .   S
    C3734  O9783     0.54132      .   S
    C3724  O9784     0.70026      .   S
    C3725  O9784     0.70026      .   S
    C388   O9785     1.02554      .   S
    C372   O9785     1.02554      .   S
    C345   O9786     0.97831      .   S
    C339   O9786     0.97831      .   S
    C2484  O9787     0.54156      .   S
    C2473  O9787     0.54156      .   S
    C2473  O9788     0.70130      .   S
    C2472  O9788     0.70130      .   S
    C346   O9789     0.97181      .   S
    C338   O9789     0.97181      .   S
    C3817  O9790     0.54176      .   S
    C3828  O9790     0.54176      .   S
    C3817  O9791     0.70173      .   S
    C3816  O9791     0.70173      .   S
    C3721  O9792     0.54184      .   S
    C3732  O9792     0.54184      .   S
    C3721  O9793     0.70127      .   S
    C3720  O9793     0.70127      .   S
    C2452  O9794     0.54161      .   S
    C2462  O9794     0.54161      .   S
    C2452  O9795     0.69885      .   S
    C2453  O9795     0.69885      .   S
    C2460  O9796     0.54169      .   S
    C2449  O9796     0.54169      .   S
    C2449  O9797     0.70109      .   S
    C2448  O9797     0.70109      .   S
    C267   O9798     0.97989      .   S
    C261   O9798     0.97989      .   S
    C3901  O9799     0.54169      .   S
    C3890  O9799     0.54169      .   S
    C450   O9800     0.97475      .   S
    C442   O9800     0.97475      .   S
    C2557  O9801     0.54141      .   S
    C2546  O9801     0.54141      .   S
    C3796  O9802     0.54167      .   S
    C3806  O9802     0.54167      .   S
    C3796  O9803     0.69985      .   S
    C3797  O9803     0.69985      .   S
    C3890  O9804     0.69895      .   S
    C3889  O9804     0.69895      .   S
    C3804  O9805     0.54196      .   S
    C3793  O9805     0.54196      .   S
    C268   O9806     0.96969      .   S
    C260   O9806     0.96969      .   S
    C3793  O9807     0.70104      .   S
    C3792  O9807     0.70104      .   S
    C2546  O9808     0.69873      .   S
    C2545  O9808     0.69873      .   S
    C579   O9809     0.97949      .   S
    C573   O9809     0.97949      .   S
    C580   O9810     0.96827      .   S
    C572   O9810     0.96827      .   S
    C449   O9811     0.97347      .   S
    C443   O9811     0.97347      .   S
    C476   O9812     0.96643      .   S
    C468   O9812     0.96643      .   S
    C241   O9813     0.96905      .   S
    C235   O9813     0.96905      .   S
    C554   O9814     0.96988      .   S
    C546   O9814     0.96988      .   S
    C372   O9815     0.97431      .   S
    C364   O9815     0.97431      .   S
    C553   O9816     0.97384      .   S
    C547   O9816     0.97384      .   S
    C242   O9817     0.97363      .   S
    C234   O9817     0.97363      .   S
    C2559  O9818     0.54022      .   S
    C2549  O9818     0.54022      .   S
    C2549  O9819     0.70511      .   S
    C2544  O9819     0.70511      .   S
    C475   O9820     0.97715      .   S
    C469   O9820     0.97715      .   S
    C3893  O9821     0.54044      .   S
    C3903  O9821     0.54044      .   S
    C3893  O9822     0.70475      .   S
    C3888  O9822     0.70475      .   S
    C371   O9823     0.96618      .   S
    C365   O9823     0.96618      .   S
    C2381  O9824     0.70502      .   S
    C2376  O9824     0.70502      .   S
    C2381  O9825     0.54021      .   S
    C2391  O9825     0.54021      .   S
    C2376  O9826     0.74187      .   S
    C2375  O9826     0.74187      .   S
    C3821  O9827     0.70456      .   S
    C3816  O9827     0.70456      .   S
    C3821  O9828     0.54052      .   S
    C3831  O9828     0.54052      .   S
    C3725  O9829     0.70453      .   S
    C3720  O9829     0.70453      .   S
    C3725  O9830     0.54047      .   S
    C3735  O9830     0.54047      .   S
    C3816  O9831     0.74341      .   S
    C3815  O9831     0.74341      .   S
    C2477  O9832     0.70530      .   S
    C2472  O9832     0.70530      .   S
    C2477  O9833     0.54072      .   S
    C2487  O9833     0.54072      .   S
    C3720  O9834     0.74212      .   S
    C3719  O9834     0.74212      .   S
    C2472  O9835     0.74310      .   S
    C2471  O9835     0.74310      .   S
    C2453  O9836     0.70484      .   S
    C2448  O9836     0.70484      .   S
    C2453  O9837     0.54037      .   S
    C2463  O9837     0.54037      .   S
    C2448  O9838     0.74034      .   S
    C2447  O9838     0.74034      .   S
    C3797  O9839     0.70506      .   S
    C3792  O9839     0.70506      .   S
    C3797  O9840     0.54053      .   S
    C3807  O9840     0.54053      .   S
    C2545  O9841     0.70172      .   S
    C2544  O9841     0.70172      .   S
    C2545  O9842     0.54184      .   S
    C2556  O9842     0.54184      .   S
    C3889  O9843     0.70236      .   S
    C3888  O9843     0.70236      .   S
    C3889  O9844     0.54172      .   S
    C3900  O9844     0.54172      .   S
    C3792  O9845     0.74194      .   S
    C3791  O9845     0.74194      .   S
    C338   O9846     0.65701      .   S
    C339   O9846     0.65701      .   S
    C338   O9847     0.67158      .   S
    C342   O9847     0.67158      .   S
    C339   O9848     0.67475      .   S
    C340   O9848     0.67475      .   S
    C2544  O9849     0.74322      .   S
    C2543  O9849     0.74322      .   S
    C3888  O9850     0.74406      .   S
    C3887  O9850     0.74406      .   S
    C442   O9851     0.65662      .   S
    C443   O9851     0.65662      .   S
    C442   O9852     0.67244      .   S
    C446   O9852     0.67244      .   S
    C572   O9853     0.65636      .   S
    C573   O9853     0.65636      .   S
    C572   O9854     0.67045      .   S
    C576   O9854     0.67045      .   S
    C261   O9855     0.65689      .   S
    C260   O9855     0.65689      .   S
    C261   O9856     0.67590      .   S
    C262   O9856     0.67590      .   S
    C443   O9857     0.67318      .   S
    C444   O9857     0.67318      .   S
    C573   O9858     0.67543      .   S
    C574   O9858     0.67543      .   S
    C260   O9859     0.67104      .   S
    C264   O9859     0.67104      .   S
    C468   O9860     0.65571      .   S
    C469   O9860     0.65571      .   S
    C468   O9861     0.67081      .   S
    C472   O9861     0.67081      .   S
    C546   O9862     0.65579      .   S
    C547   O9862     0.65579      .   S
    C546   O9863     0.67135      .   S
    C550   O9863     0.67135      .   S
    C235   O9864     0.65619      .   S
    C234   O9864     0.65619      .   S
    C235   O9865     0.67187      .   S
    C236   O9865     0.67187      .   S
    C469   O9866     0.67476      .   S
    C470   O9866     0.67476      .   S
    C364   O9867     0.65644      .   S
    C365   O9867     0.65644      .   S
    C364   O9868     0.67289      .   S
    C368   O9868     0.67289      .   S
    C547   O9869     0.67381      .   S
    C548   O9869     0.67381      .   S
    C234   O9870     0.67367      .   S
    C238   O9870     0.67367      .   S
    C365   O9871     0.67200      .   S
    C366   O9871     0.67200      .   S
    C2375  O9872     0.54081      .   S
    C2387  O9872     0.54081      .   S
    C2375  O9873     0.67054      .   S
    C2374  O9873     0.67054      .   S
    C3815  O9874     0.54098      .   S
    C3827  O9874     0.54098      .   S
    C3815  O9875     0.67154      .   S
    C3814  O9875     0.67154      .   S
    C3719  O9876     0.54108      .   S
    C3731  O9876     0.54108      .   S
    C3719  O9877     0.67105      .   S
    C3718  O9877     0.67105      .   S
    C2471  O9878     0.54111      .   S
    C2483  O9878     0.54111      .   S
    C2471  O9879     0.67035      .   S
    C2470  O9879     0.67035      .   S
    C342   O9880     0.53983      .   S
    C344   O9880     0.53983      .   S
    C342   O9881     0.69243      .   S
    C341   O9881     0.69243      .   S
    C340   O9882     0.54035      .   S
    C343   O9882     0.54035      .   S
    C340   O9883     0.69548      .   S
    C341   O9883     0.69548      .   S
    C2447  O9884     0.54075      .   S
    C2459  O9884     0.54075      .   S
    C2447  O9885     0.66980      .   S
    C2446  O9885     0.66980      .   S
    C2554  O9886     0.54066      .   S
    C2542  O9886     0.54066      .   S
    C446   O9887     0.53987      .   S
    C448   O9887     0.53987      .   S
    C446   O9888     0.69531      .   S
    C445   O9888     0.69531      .   S
    C3791  O9889     0.54122      .   S
    C3803  O9889     0.54122      .   S
    C3791  O9890     0.67030      .   S
    C3790  O9890     0.67030      .   S
    C576   O9891     0.53962      .   S
    C578   O9891     0.53962      .   S
    C576   O9892     0.69332      .   S
    C575   O9892     0.69332      .   S
    C3898  O9893     0.54061      .   S
    C3886  O9893     0.54061      .   S
    C574   O9894     0.54012      .   S
    C577   O9894     0.54012      .   S
    C574   O9895     0.69773      .   S
    C575   O9895     0.69773      .   S
    C444   O9896     0.53986      .   S
    C447   O9896     0.53986      .   S
    C444   O9897     0.69564      .   S
    C445   O9897     0.69564      .   S
    C2543  O9898     0.67019      .   S
    C2542  O9898     0.67019      .   S
    C2543  O9899     0.54093      .   S
    C2555  O9899     0.54093      .   S
    C262   O9900     0.54028      .   S
    C265   O9900     0.54028      .   S
    C262   O9901     0.69588      .   S
    C263   O9901     0.69588      .   S
    C472   O9902     0.53958      .   S
    C474   O9902     0.53958      .   S
    C472   O9903     0.69321      .   S
    C471   O9903     0.69321      .   S
    C264   O9904     0.53995      .   S
    C266   O9904     0.53995      .   S
    C264   O9905     0.69138      .   S
    C263   O9905     0.69138      .   S
    C368   O9906     0.54047      .   S
    C370   O9906     0.54047      .   S
    C368   O9907     0.69414      .   S
    C367   O9907     0.69414      .   S
    C3887  O9908     0.67126      .   S
    C3886  O9908     0.67126      .   S
    C3887  O9909     0.54087      .   S
    C3899  O9909     0.54087      .   S
    C550   O9910     0.53944      .   S
    C552   O9910     0.53944      .   S
    C550   O9911     0.69425      .   S
    C549   O9911     0.69425      .   S
    C236   O9912     0.53952      .   S
    C239   O9912     0.53952      .   S
    C236   O9913     0.69232      .   S
    C237   O9913     0.69232      .   S
    C470   O9914     0.54013      .   S
    C473   O9914     0.54013      .   S
    C470   O9915     0.69742      .   S
    C471   O9915     0.69742      .   S
    C548   O9916     0.53973      .   S
    C551   O9916     0.53973      .   S
    C548   O9917     0.69605      .   S
    C549   O9917     0.69605      .   S
    C238   O9918     0.54010      .   S
    C240   O9918     0.54010      .   S
    C238   O9919     0.69421      .   S
    C237   O9919     0.69421      .   S
    C366   O9920     0.54067      .   S
    C369   O9920     0.54067      .   S
    C366   O9921     0.69343      .   S
    C367   O9921     0.69343      .   S
    C2542  O9922     0.74168      .   S
    C2538  O9922     0.74168      .   S
    C2386  O9923     0.54069      .   S
    C2374  O9923     0.54069      .   S
    C3826  O9924     0.54084      .   S
    C3814  O9924     0.54084      .   S
    C3886  O9925     0.74337      .   S
    C3882  O9925     0.74337      .   S
    C2374  O9926     0.74240      .   S
    C2370  O9926     0.74240      .   S
    C3730  O9927     0.54065      .   S
    C3718  O9927     0.54065      .   S
    C2482  O9928     0.54097      .   S
    C2470  O9928     0.54097      .   S
    C3814  O9929     0.74345      .   S
    C3810  O9929     0.74345      .   S
    C2458  O9930     0.54061      .   S
    C2446  O9930     0.54061      .   S
    C3718  O9931     0.74260      .   S
    C3714  O9931     0.74260      .   S
    C2470  O9932     0.74255      .   S
    C2466  O9932     0.74255      .   S
    C2446  O9933     0.74009      .   S
    C2442  O9933     0.74009      .   S
    C3802  O9934     0.54116      .   S
    C3790  O9934     0.54116      .   S
    C3790  O9935     0.74187      .   S
    C3786  O9935     0.74187      .   S
    C2538  O9936     0.69949      .   S
    C2537  O9936     0.69949      .   S
    C2538  O9937     0.70414      .   S
    C2539  O9937     0.70414      .   S
    C2551  O9938     0.54189      .   S
    C2537  O9938     0.54189      .   S
    C2370  O9939     0.70403      .   S
    C2371  O9939     0.70403      .   S
    C2370  O9940     0.70121      .   S
    C2369  O9940     0.70121      .   S
    C3882  O9941     0.70104      .   S
    C3881  O9941     0.70104      .   S
    C3882  O9942     0.70485      .   S
    C3883  O9942     0.70485      .   S
    C2384  O9943     0.54069      .   S
    C2371  O9943     0.54069      .   S
    C3895  O9944     0.54198      .   S
    C3881  O9944     0.54198      .   S
    C3810  O9945     0.70358      .   S
    C3811  O9945     0.70358      .   S
    C3810  O9946     0.70147      .   S
    C3809  O9946     0.70147      .   S
    C2552  O9947     0.54057      .   S
    C2539  O9947     0.54057      .   S
    C3714  O9948     0.70341      .   S
    C3715  O9948     0.70341      .   S
    C3714  O9949     0.70116      .   S
    C3713  O9949     0.70116      .   S
    C2442  O9950     0.70378      .   S
    C2443  O9950     0.70378      .   S
    C2442  O9951     0.70010      .   S
    C2441  O9951     0.70010      .   S
    C2466  O9952     0.70405      .   S
    C2467  O9952     0.70405      .   S
    C2466  O9953     0.69950      .   S
    C2465  O9953     0.69950      .   S
    C3728  O9954     0.54057      .   S
    C3715  O9954     0.54057      .   S
    C2480  O9955     0.54048      .   S
    C2467  O9955     0.54048      .   S
    C2456  O9956     0.54076      .   S
    C2443  O9956     0.54076      .   S
    C3896  O9957     0.54014      .   S
    C3883  O9957     0.54014      .   S
    C3824  O9958     0.54083      .   S
    C3811  O9958     0.54083      .   S
    C2383  O9959     0.54193      .   S
    C2369  O9959     0.54193      .   S
    C3823  O9960     0.54178      .   S
    C3809  O9960     0.54178      .   S
    C3786  O9961     0.70373      .   S
    C3787  O9961     0.70373      .   S
    C3786  O9962     0.69985      .   S
    C3785  O9962     0.69985      .   S
    C3727  O9963     0.54164      .   S
    C3713  O9963     0.54164      .   S
    C3800  O9964     0.54061      .   S
    C3787  O9964     0.54061      .   S
    C2537  O9965     0.69599      .   S
    C2536  O9965     0.69599      .   S
    C2455  O9966     0.54176      .   S
    C2441  O9966     0.54176      .   S
    C2479  O9967     0.54169      .   S
    C2465  O9967     0.54169      .   S
    C2371  O9968     0.69935      .   S
    C2372  O9968     0.69935      .   S
    C2539  O9969     0.70149      .   S
    C2540  O9969     0.70149      .   S
    C3799  O9970     0.54198      .   S
    C3785  O9970     0.54198      .   S
    C3881  O9971     0.69768      .   S
    C3880  O9971     0.69768      .   S
    C2369  O9972     0.69809      .   S
    C2368  O9972     0.69809      .   S
    C3715  O9973     0.69844      .   S
    C3716  O9973     0.69844      .   S
    C3811  O9974     0.69912      .   S
    C3812  O9974     0.69912      .   S
    C3883  O9975     0.70090      .   S
    C3884  O9975     0.70090      .   S
    C2443  O9976     0.69858      .   S
    C2444  O9976     0.69858      .   S
    C2467  O9977     0.70099      .   S
    C2468  O9977     0.70099      .   S
    C3809  O9978     0.69971      .   S
    C3808  O9978     0.69971      .   S
    C3713  O9979     0.69930      .   S
    C3712  O9979     0.69930      .   S
    C2441  O9980     0.69731      .   S
    C2440  O9980     0.69731      .   S
    C2465  O9981     0.69705      .   S
    C2464  O9981     0.69705      .   S
    C3787  O9982     0.70012      .   S
    C3788  O9982     0.70012      .   S
    C3785  O9983     0.69743      .   S
    C3784  O9983     0.69743      .   S
    C2536  O9984     0.53972      .   S
    C2550  O9984     0.53972      .   S
    C2536  O9985     0.70568      .   S
    C2541  O9985     0.70568      .   S
    C2372  O9986     0.54086      .   S
    C2385  O9986     0.54086      .   S
    C2372  O9987     0.70256      .   S
    C2373  O9987     0.70256      .   S
    C2540  O9988     0.54072      .   S
    C2553  O9988     0.54072      .   S
    C2540  O9989     0.70492      .   S
    C2541  O9989     0.70492      .   S
    C3880  O9990     0.54030      .   S
    C3894  O9990     0.54030      .   S
    C3880  O9991     0.70359      .   S
    C3885  O9991     0.70359      .   S
    C2368  O9992     0.54110      .   S
    C2382  O9992     0.54110      .   S
    C2368  O9993     0.70260      .   S
    C2373  O9993     0.70260      .   S
    C3716  O9994     0.54048      .   S
    C3729  O9994     0.54048      .   S
    C3716  O9995     0.70345      .   S
    C3717  O9995     0.70345      .   S
    C2444  O9996     0.54055      .   S
    C2457  O9996     0.54055      .   S
    C2444  O9997     0.70276      .   S
    C2445  O9997     0.70276      .   S
    C3812  O9998     0.54047      .   S
    C3825  O9998     0.54047      .   S
    C3812  O9999     0.70375      .   S
    C3813  O9999     0.70375      .   S
    C2468  O10000    0.54045      .   S
    C2481  O10000    0.54045      .   S
    C2468  O10001    0.70499      .   S
    C2469  O10001    0.70499      .   S
    C3808  O10002    0.54036      .   S
    C3822  O10002    0.54036      .   S
    C3808  O10003    0.70390      .   S
    C3813  O10003    0.70390      .   S
    C3884  O10004    0.54062      .   S
    C3897  O10004    0.54062      .   S
    C3884  O10005    0.70335      .   S
    C3885  O10005    0.70335      .   S
    C3712  O10006    0.54032      .   S
    C3726  O10006    0.54032      .   S
    C3712  O10007    0.70372      .   S
    C3717  O10007    0.70372      .   S
    C2440  O10008    0.54031      .   S
    C2454  O10008    0.54031      .   S
    C2440  O10009    0.70363      .   S
    C2445  O10009    0.70363      .   S
    C2464  O10010    0.53989      .   S
    C2478  O10010    0.53989      .   S
    C2464  O10011    0.70585      .   S
    C2469  O10011    0.70585      .   S
    C3788  O10012    0.54059      .   S
    C3801  O10012    0.54059      .   S
    C3788  O10013    0.70521      .   S
    C3789  O10013    0.70521      .   S
    C3784  O10014    0.53968      .   S
    C3798  O10014    0.53968      .   S
    C3784  O10015    0.70575      .   S
    C3789  O10015    0.70575      .   S
    C976   O10016    1.32390      .   S
    C977   O10016    1.32390      .   S
    C978   O10017    1.32190      .   S
    C979   O10017    1.32190      .   S
    C980   O10018    1.32198      .   S
    C981   O10018    1.32198      .   S
    C982   O10019    1.32372      .   S
    C983   O10019    1.32372      .   S
    C1164  O10020    1.32261      .   S
    C1165  O10020    1.32261      .   S
    C1166  O10021    1.32360      .   S
    C1167  O10021    1.32360      .   S
    C1168  O10022    1.32285      .   S
    C1169  O10022    1.32285      .   S
    C1170  O10023    1.32373      .   S
    C1171  O10023    1.32373      .   S
    C1172  O10024    1.32253      .   S
    C1173  O10024    1.32253      .   S
    C1174  O10025    1.32376      .   S
    C1175  O10025    1.32376      .   S
    C1176  O10026    1.32287      .   S
    C1177  O10026    1.32287      .   S
    C1178  O10027    1.32422      .   S
    C1179  O10027    1.32422      .   S
    C1360  O10028    1.32251      .   S
    C1361  O10028    1.32251      .   S
    C1362  O10029    1.32438      .   S
    C1363  O10029    1.32438      .   S
    C1364  O10030    1.32306      .   S
    C1365  O10030    1.32306      .   S
    C1366  O10031    1.32369      .   S
    C1367  O10031    1.32369      .   S
    C1548  O10032    1.32345      .   S
    C1549  O10032    1.32345      .   S
    C1550  O10033    1.32480      .   S
    C1551  O10033    1.32480      .   S
    C1552  O10034    1.32255      .   S
    C1553  O10034    1.32255      .   S
    C1554  O10035    1.32347      .   S
    C1555  O10035    1.32347      .   S
    C1556  O10036    1.32334      .   S
    C1557  O10036    1.32334      .   S
    C1558  O10037    1.32370      .   S
    C1559  O10037    1.32370      .   S
    C1560  O10038    1.32350      .   S
    C1561  O10038    1.32350      .   S
    C1562  O10039    1.32361      .   S
    C1563  O10039    1.32361      .   S
    C1744  O10040    1.32416      .   S
    C1745  O10040    1.32416      .   S
    C1746  O10041    1.32323      .   S
    C1747  O10041    1.32323      .   S
    C1748  O10042    1.32316      .   S
    C1749  O10042    1.32316      .   S
    C1750  O10043    1.32370      .   S
    C1751  O10043    1.32370      .   S
    C1932  O10044    1.32465      .   S
    C1933  O10044    1.32465      .   S
    C1934  O10045    1.32317      .   S
    C1935  O10045    1.32317      .   S
    C1936  O10046    1.32347      .   S
    C1937  O10046    1.32347      .   S
    C1938  O10047    1.32459      .   S
    C1939  O10047    1.32459      .   S
    C1940  O10048    1.32420      .   S
    C1941  O10048    1.32420      .   S
    C1942  O10049    1.32368      .   S
    C1943  O10049    1.32368      .   S
    C1944  O10050    1.32405      .   S
    C1945  O10050    1.32405      .   S
    C1946  O10051    1.32560      .   S
    C1947  O10051    1.32560      .   S
    C2128  O10052    1.32304      .   S
    C2129  O10052    1.32304      .   S
    C2130  O10053    1.32417      .   S
    C2131  O10053    1.32417      .   S
    C2132  O10054    1.32421      .   S
    C2133  O10054    1.32421      .   S
    C2134  O10055    1.32331      .   S
    C2135  O10055    1.32331      .   S
    C2316  O10056    1.32250      .   S
    C2317  O10056    1.32250      .   S
    C2318  O10057    1.32341      .   S
    C2319  O10057    1.32341      .   S
    C2320  O10058    1.32272      .   S
    C2321  O10058    1.32272      .   S
    C2322  O10059    1.32461      .   S
    C2323  O10059    1.32461      .   S
    C2324  O10060    1.32429  1_554   S
    C2325  O10060    1.32429      .   S
    C2326  O10061    1.32488      .   S
    C2327  O10061    1.32488  1_556   S
    C2328  O10062    1.32296      .   S
    C2329  O10062    1.32296      .   S
    C2330  O10063    1.32435      .   S
    C2331  O10063    1.32435      .   S
