# CIF file generated by openbabel 2.4.90, see http://openbabel.sf.net
data_I
_chemical_name_common ''
_cell_length_a 71.5169
_cell_length_b 71.4927
_cell_length_c 71.6087
_cell_angle_alpha 89.8315
_cell_angle_beta 90.1248
_cell_angle_gamma 89.8689
_space_group_name_H-M_alt 'P 1'
_space_group_name_Hall 'P 1'
loop_
    _symmetry_equiv_pos_as_xyz
    x,y,z
loop_
    _atom_site_label
    _atom_site_type_symbol
    _atom_site_fract_x
    _atom_site_fract_y
    _atom_site_fract_z
    _atom_site_occupancy
    Zr0     Zr   0.35627   0.34348   0.30375   1.000
    Zr1     Zr   0.34397   0.35711   0.30457   1.000
    Zr2     Zr   0.34687   0.36883   0.29003   1.000
    Zr3     Zr   0.36186   0.36209   0.27955   1.000
    Zr4     Zr   0.36730   0.34592   0.28883   1.000
    Zr5     Zr   0.33876   0.38134   0.28741   1.000
    Zr6     Zr   0.37868   0.33665   0.28536   1.000
    Zr7     Zr   0.32576   0.35797   0.32496   1.000
    Zr8     Zr   0.35820   0.32388   0.32234   1.000
    Zr9     Zr   0.32584   0.32408   0.35797   1.000
    Zr10    Zr   0.30692   0.35716   0.34474   1.000
    Zr11    Zr   0.30716   0.34383   0.35741   1.000
    Zr12    Zr   0.29304   0.34648   0.36945   1.000
    Zr13    Zr   0.28321   0.36243   0.36424   1.000
    Zr14    Zr   0.29251   0.36881   0.34837   1.000
    Zr15    Zr   0.29036   0.33740   0.38121   1.000
    Zr16    Zr   0.28917   0.38103   0.34009   1.000
    Zr17    Zr   0.34586   0.30525   0.35609   1.000
    Zr18    Zr   0.35811   0.30518   0.34238   1.000
    Zr19    Zr   0.37023   0.29102   0.34504   1.000
    Zr20    Zr   0.36549   0.28165   0.36128   1.000
    Zr21    Zr   0.34989   0.29108   0.36789   1.000
    Zr22    Zr   0.38180   0.28794   0.33589   1.000
    Zr23    Zr   0.34219   0.28808   0.38050   1.000
    Zr24    Zr   0.33013   0.32448   0.32959   1.000
    Zr25    Zr   0.34643   0.33873   0.34425   1.000
    Zr26    Zr   0.35605   0.84478   0.80621   1.000
    Zr27    Zr   0.34232   0.85701   0.80578   1.000
    Zr28    Zr   0.34538   0.86942   0.79200   1.000
    Zr29    Zr   0.36193   0.86476   0.78314   1.000
    Zr30    Zr   0.36831   0.84896   0.79257   1.000
    Zr31    Zr   0.33621   0.88099   0.78872   1.000
    Zr32    Zr   0.38102   0.84122   0.78994   1.000
    Zr33    Zr   0.32215   0.85570   0.82365   1.000
    Zr34    Zr   0.35713   0.82471   0.82492   1.000
    Zr35    Zr   0.32168   0.82459   0.85831   1.000
    Zr36    Zr   0.30311   0.85678   0.84276   1.000
    Zr37    Zr   0.30294   0.84441   0.85635   1.000
    Zr38    Zr   0.28860   0.84824   0.86787   1.000
    Zr39    Zr   0.27928   0.86393   0.86116   1.000
    Zr40    Zr   0.28898   0.86895   0.84519   1.000
    Zr41    Zr   0.28540   0.84026   0.88029   1.000
    Zr42    Zr   0.28606   0.88062   0.83601   1.000
    Zr43    Zr   0.34195   0.80585   0.85773   1.000
    Zr44    Zr   0.35539   0.80580   0.84512   1.000
    Zr45    Zr   0.36694   0.79128   0.84863   1.000
    Zr46    Zr   0.36048   0.78170   0.86421   1.000
    Zr47    Zr   0.34460   0.79142   0.86954   1.000
    Zr48    Zr   0.37915   0.78796   0.84042   1.000
    Zr49    Zr   0.33560   0.78830   0.88122   1.000
    Zr50    Zr   0.32894   0.82300   0.83041   1.000
    Zr51    Zr   0.34281   0.83932   0.84515   1.000
    Zr52    Zr   0.85715   0.34606   0.80482   1.000
    Zr53    Zr   0.84411   0.35901   0.80503   1.000
    Zr54    Zr   0.84722   0.37126   0.79112   1.000
    Zr55    Zr   0.86313   0.36582   0.78146   1.000
    Zr56    Zr   0.86904   0.34965   0.79067   1.000
    Zr57    Zr   0.83849   0.38327   0.78837   1.000
    Zr58    Zr   0.88108   0.34112   0.78744   1.000
    Zr59    Zr   0.82435   0.35915   0.82355   1.000
    Zr60    Zr   0.85774   0.32582   0.82325   1.000
    Zr61    Zr   0.82293   0.32620   0.85700   1.000
    Zr62    Zr   0.80528   0.35935   0.84279   1.000
    Zr63    Zr   0.80474   0.34645   0.85585   1.000
    Zr64    Zr   0.79041   0.35011   0.86745   1.000
    Zr65    Zr   0.78144   0.36624   0.86135   1.000
    Zr66    Zr   0.79135   0.37168   0.84565   1.000
    Zr67    Zr   0.78688   0.34165   0.87946   1.000
    Zr68    Zr   0.78876   0.38381   0.83701   1.000
    Zr69    Zr   0.84252   0.30687   0.85589   1.000
    Zr70    Zr   0.85579   0.30663   0.84313   1.000
    Zr71    Zr   0.86702   0.29177   0.84635   1.000
    Zr72    Zr   0.86049   0.28218   0.86191   1.000
    Zr73    Zr   0.84493   0.29225   0.86751   1.000
    Zr74    Zr   0.87905   0.28823   0.83798   1.000
    Zr75    Zr   0.83605   0.28930   0.87933   1.000
    Zr76    Zr   0.82950   0.32578   0.82879   1.000
    Zr77    Zr   0.84449   0.34069   0.84404   1.000
    Zr78    Zr   0.85675   0.84623   0.30545   1.000
    Zr79    Zr   0.84370   0.85916   0.30580   1.000
    Zr80    Zr   0.84661   0.87142   0.29189   1.000
    Zr81    Zr   0.86243   0.86610   0.28207   1.000
    Zr82    Zr   0.86850   0.84991   0.29117   1.000
    Zr83    Zr   0.83778   0.88338   0.28926   1.000
    Zr84    Zr   0.88062   0.84150   0.28787   1.000
    Zr85    Zr   0.82402   0.85910   0.32435   1.000
    Zr86    Zr   0.85735   0.82586   0.32389   1.000
    Zr87    Zr   0.82190   0.82579   0.35714   1.000
    Zr88    Zr   0.80429   0.85891   0.34287   1.000
    Zr89    Zr   0.80346   0.84582   0.35572   1.000
    Zr90    Zr   0.78857   0.84906   0.36676   1.000
    Zr91    Zr   0.77954   0.86507   0.36044   1.000
    Zr92    Zr   0.78999   0.87089   0.34525   1.000
    Zr93    Zr   0.78471   0.84041   0.37853   1.000
    Zr94    Zr   0.78755   0.88308   0.33667   1.000
    Zr95    Zr   0.84178   0.80673   0.35635   1.000
    Zr96    Zr   0.85529   0.80660   0.34381   1.000
    Zr97    Zr   0.86659   0.79183   0.34729   1.000
    Zr98    Zr   0.85983   0.78220   0.36274   1.000
    Zr99    Zr   0.84411   0.79217   0.36804   1.000
    Zr100   Zr   0.87881   0.78834   0.33915   1.000
    Zr101   Zr   0.83507   0.78919   0.37972   1.000
    Zr102   Zr   0.82907   0.82571   0.32905   1.000
    Zr103   Zr   0.84387   0.84026   0.34479   1.000
    Zr104   Zr   0.64188   0.65791   0.30517   1.000
    Zr105   Zr   0.65411   0.64420   0.30548   1.000
    Zr106   Zr   0.65031   0.63237   0.29138   1.000
    Zr107   Zr   0.63478   0.63904   0.28175   1.000
    Zr108   Zr   0.62992   0.65534   0.29093   1.000
    Zr109   Zr   0.65800   0.61966   0.28862   1.000
    Zr110   Zr   0.61832   0.66453   0.28780   1.000
    Zr111   Zr   0.67318   0.64301   0.32485   1.000
    Zr112   Zr   0.64129   0.67731   0.32397   1.000
    Zr113   Zr   0.67494   0.67549   0.35888   1.000
    Zr114   Zr   0.69246   0.64244   0.34397   1.000
    Zr115   Zr   0.69312   0.65506   0.35727   1.000
    Zr116   Zr   0.70762   0.65112   0.36867   1.000
    Zr117   Zr   0.71656   0.63515   0.36219   1.000
    Zr118   Zr   0.70648   0.63011   0.34645   1.000
    Zr119   Zr   0.71124   0.65924   0.38086   1.000
    Zr120   Zr   0.70908   0.61831   0.33744   1.000
    Zr121   Zr   0.65522   0.69497   0.35773   1.000
    Zr122   Zr   0.64273   0.69566   0.34416   1.000
    Zr123   Zr   0.63090   0.70991   0.34725   1.000
    Zr124   Zr   0.63597   0.71872   0.36364   1.000
    Zr125   Zr   0.65157   0.70890   0.36988   1.000
    Zr126   Zr   0.61924   0.71343   0.33830   1.000
    Zr127   Zr   0.65937   0.71139   0.38257   1.000
    Zr128   Zr   0.66962   0.67634   0.33075   1.000
    Zr129   Zr   0.65363   0.66181   0.34538   1.000
    Zr130   Zr   0.64083   0.15515   0.80714   1.000
    Zr131   Zr   0.65506   0.14366   0.80554   1.000
    Zr132   Zr   0.65171   0.13196   0.79114   1.000
    Zr133   Zr   0.63439   0.13649   0.78330   1.000
    Zr134   Zr   0.62806   0.15132   0.79399   1.000
    Zr135   Zr   0.66119   0.12103   0.78676   1.000
    Zr136   Zr   0.61517   0.15904   0.79238   1.000
    Zr137   Zr   0.67632   0.14525   0.82275   1.000
    Zr138   Zr   0.63963   0.17480   0.82554   1.000
    Zr139   Zr   0.67807   0.18063   0.85406   1.000
    Zr140   Zr   0.69498   0.14594   0.84276   1.000
    Zr141   Zr   0.69548   0.15978   0.85479   1.000
    Zr142   Zr   0.70969   0.15706   0.86679   1.000
    Zr143   Zr   0.71873   0.14053   0.86223   1.000
    Zr144   Zr   0.70894   0.13386   0.84683   1.000
    Zr145   Zr   0.71311   0.16656   0.87798   1.000
    Zr146   Zr   0.71172   0.12118   0.83913   1.000
    Zr147   Zr   0.65571   0.19667   0.85547   1.000
    Zr148   Zr   0.64093   0.19407   0.84480   1.000
    Zr149   Zr   0.62772   0.20666   0.84928   1.000
    Zr150   Zr   0.63438   0.21777   0.86358   1.000
    Zr151   Zr   0.65225   0.21102   0.86715   1.000
    Zr152   Zr   0.61428   0.20773   0.84247   1.000
    Zr153   Zr   0.66191   0.21592   0.87768   1.000
    Zr154   Zr   0.66801   0.17836   0.82681   1.000
    Zr155   Zr   0.65773   0.16273   0.84510   1.000
    Zr156   Zr   0.14428   0.65580   0.80429   1.000
    Zr157   Zr   0.15746   0.64298   0.80449   1.000
    Zr158   Zr   0.15491   0.63128   0.79007   1.000
    Zr159   Zr   0.13925   0.63694   0.78018   1.000
    Zr160   Zr   0.13278   0.65258   0.78970   1.000
    Zr161   Zr   0.16369   0.61932   0.78716   1.000
    Zr162   Zr   0.12068   0.66103   0.78629   1.000
    Zr163   Zr   0.17684   0.64261   0.82340   1.000
    Zr164   Zr   0.14325   0.67552   0.82321   1.000
    Zr165   Zr   0.17814   0.67469   0.85720   1.000
    Zr166   Zr   0.19622   0.64218   0.84235   1.000
    Zr167   Zr   0.19669   0.65480   0.85561   1.000
    Zr168   Zr   0.21132   0.65124   0.86694   1.000
    Zr169   Zr   0.22061   0.63552   0.86037   1.000
    Zr170   Zr   0.21058   0.63022   0.84469   1.000
    Zr171   Zr   0.21475   0.65943   0.87913   1.000
    Zr172   Zr   0.21342   0.61845   0.83569   1.000
    Zr173   Zr   0.15820   0.69368   0.85644   1.000
    Zr174   Zr   0.14490   0.69411   0.84363   1.000
    Zr175   Zr   0.13351   0.70875   0.84714   1.000
    Zr176   Zr   0.13999   0.71799   0.86290   1.000
    Zr177   Zr   0.15564   0.70794   0.86837   1.000
    Zr178   Zr   0.12145   0.71245   0.83878   1.000
    Zr179   Zr   0.16446   0.71066   0.88031   1.000
    Zr180   Zr   0.17147   0.67576   0.82897   1.000
    Zr181   Zr   0.15655   0.66054   0.84396   1.000
    Zr182   Zr   0.13827   0.15313   0.30713   1.000
    Zr183   Zr   0.15350   0.14365   0.30322   1.000
    Zr184   Zr   0.15077   0.13407   0.28728   1.000
    Zr185   Zr   0.13281   0.13782   0.28086   1.000
    Zr186   Zr   0.12532   0.14997   0.29390   1.000
    Zr187   Zr   0.16104   0.12497   0.28094   1.000
    Zr188   Zr   0.11137   0.15582   0.29404   1.000
    Zr189   Zr   0.17496   0.14409   0.31995   1.000
    Zr190   Zr   0.13598   0.16806   0.32957   1.000
    Zr191   Zr   0.17751   0.17754   0.35270   1.000
    Zr192   Zr   0.19336   0.14294   0.33995   1.000
    Zr193   Zr   0.19456   0.15609   0.35267   1.000
    Zr194   Zr   0.20876   0.15197   0.36438   1.000
    Zr195   Zr   0.21686   0.13520   0.35877   1.000
    Zr196   Zr   0.20662   0.12996   0.34317   1.000
    Zr197   Zr   0.21279   0.16058   0.37609   1.000
    Zr198   Zr   0.20857   0.11764   0.33470   1.000
    Zr199   Zr   0.15462   0.19269   0.35598   1.000
    Zr200   Zr   0.13875   0.18853   0.34758   1.000
    Zr201   Zr   0.12570   0.20118   0.35231   1.000
    Zr202   Zr   0.13359   0.21405   0.36439   1.000
    Zr203   Zr   0.15203   0.20814   0.36643   1.000
    Zr204   Zr   0.11158   0.20114   0.34691   1.000
    Zr205   Zr   0.16284   0.21462   0.37474   1.000
    Zr206   Zr   0.16340   0.17553   0.32695   1.000
    Zr207   Zr   0.15833   0.15841   0.34600   1.000
    Zr208   Zr   0.64173   0.34241   0.69350   1.000
    Zr209   Zr   0.65434   0.35576   0.69355   1.000
    Zr210   Zr   0.65040   0.36775   0.70755   1.000
    Zr211   Zr   0.63444   0.36155   0.71674   1.000
    Zr212   Zr   0.62945   0.34540   0.70735   1.000
    Zr213   Zr   0.65844   0.38013   0.71069   1.000
    Zr214   Zr   0.61774   0.33637   0.71033   1.000
    Zr215   Zr   0.67451   0.35608   0.67508   1.000
    Zr216   Zr   0.64164   0.32215   0.67545   1.000
    Zr217   Zr   0.67628   0.32274   0.64200   1.000
    Zr218   Zr   0.69349   0.35648   0.65535   1.000
    Zr219   Zr   0.69397   0.34318   0.64273   1.000
    Zr220   Zr   0.70787   0.34654   0.63065   1.000
    Zr221   Zr   0.71674   0.36292   0.63572   1.000
    Zr222   Zr   0.70725   0.36885   0.65159   1.000
    Zr223   Zr   0.71121   0.33763   0.61897   1.000
    Zr224   Zr   0.70995   0.38136   0.65959   1.000
    Zr225   Zr   0.65722   0.30311   0.64331   1.000
    Zr226   Zr   0.64389   0.30285   0.65598   1.000
    Zr227   Zr   0.63272   0.28804   0.65275   1.000
    Zr228   Zr   0.63934   0.27853   0.63724   1.000
    Zr229   Zr   0.65491   0.28855   0.63170   1.000
    Zr230   Zr   0.62057   0.28458   0.66099   1.000
    Zr231   Zr   0.66373   0.28572   0.61982   1.000
    Zr232   Zr   0.66989   0.32261   0.67025   1.000
    Zr233   Zr   0.65468   0.33731   0.65476   1.000
    Zr234   Zr   0.64448   0.84553   0.19711   1.000
    Zr235   Zr   0.65791   0.85800   0.19663   1.000
    Zr236   Zr   0.65575   0.86991   0.21095   1.000
    Zr237   Zr   0.64012   0.86470   0.22107   1.000
    Zr238   Zr   0.63332   0.84908   0.21182   1.000
    Zr239   Zr   0.66476   0.88170   0.21359   1.000
    Zr240   Zr   0.62113   0.84094   0.21540   1.000
    Zr241   Zr   0.67665   0.85802   0.17712   1.000
    Zr242   Zr   0.64236   0.82605   0.17828   1.000
    Zr243   Zr   0.67516   0.82621   0.14255   1.000
    Zr244   Zr   0.69462   0.85817   0.15691   1.000
    Zr245   Zr   0.69410   0.84588   0.14332   1.000
    Zr246   Zr   0.70791   0.84976   0.13111   1.000
    Zr247   Zr   0.71754   0.86540   0.13738   1.000
    Zr248   Zr   0.70867   0.87022   0.15383   1.000
    Zr249   Zr   0.71052   0.84195   0.11849   1.000
    Zr250   Zr   0.71207   0.88175   0.16290   1.000
    Zr251   Zr   0.65489   0.80749   0.14439   1.000
    Zr252   Zr   0.64250   0.80748   0.15802   1.000
    Zr253   Zr   0.63046   0.79330   0.15536   1.000
    Zr254   Zr   0.63537   0.78383   0.13925   1.000
    Zr255   Zr   0.65099   0.79327   0.13269   1.000
    Zr256   Zr   0.61890   0.79018   0.16452   1.000
    Zr257   Zr   0.65885   0.79016   0.12022   1.000
    Zr258   Zr   0.67037   0.82510   0.17091   1.000
    Zr259   Zr   0.65506   0.84108   0.15695   1.000
    Zr260   Zr   0.14330   0.34329   0.19492   1.000
    Zr261   Zr   0.15618   0.35636   0.19461   1.000
    Zr262   Zr   0.15355   0.36778   0.20939   1.000
    Zr263   Zr   0.13820   0.36140   0.21946   1.000
    Zr264   Zr   0.13214   0.34586   0.20974   1.000
    Zr265   Zr   0.16217   0.37974   0.21262   1.000
    Zr266   Zr   0.12026   0.33715   0.21299   1.000
    Zr267   Zr   0.17489   0.35683   0.17466   1.000
    Zr268   Zr   0.14142   0.32390   0.17613   1.000
    Zr269   Zr   0.17464   0.32359   0.14119   1.000
    Zr270   Zr   0.19401   0.35602   0.15514   1.000
    Zr271   Zr   0.19374   0.34300   0.14222   1.000
    Zr272   Zr   0.20823   0.34557   0.13055   1.000
    Zr273   Zr   0.21829   0.36108   0.13635   1.000
    Zr274   Zr   0.20878   0.36734   0.15206   1.000
    Zr275   Zr   0.21108   0.33682   0.11863   1.000
    Zr276   Zr   0.21236   0.37921   0.16065   1.000
    Zr277   Zr   0.15416   0.30513   0.14258   1.000
    Zr278   Zr   0.14158   0.30532   0.15600   1.000
    Zr279   Zr   0.12937   0.29131   0.15322   1.000
    Zr280   Zr   0.13439   0.28172   0.13722   1.000
    Zr281   Zr   0.15025   0.29091   0.13087   1.000
    Zr282   Zr   0.11765   0.28837   0.16222   1.000
    Zr283   Zr   0.15826   0.28764   0.11853   1.000
    Zr284   Zr   0.16965   0.32357   0.16945   1.000
    Zr285   Zr   0.15417   0.33861   0.15462   1.000
    Zr286   Zr   0.14456   0.84429   0.69434   1.000
    Zr287   Zr   0.15762   0.85717   0.69351   1.000
    Zr288   Zr   0.15530   0.86920   0.70773   1.000
    Zr289   Zr   0.13994   0.86365   0.71813   1.000
    Zr290   Zr   0.13349   0.84773   0.70914   1.000
    Zr291   Zr   0.16413   0.88117   0.71024   1.000
    Zr292   Zr   0.12167   0.83920   0.71304   1.000
    Zr293   Zr   0.17648   0.85716   0.67396   1.000
    Zr294   Zr   0.14287   0.82401   0.67616   1.000
    Zr295   Zr   0.17681   0.82324   0.64178   1.000
    Zr296   Zr   0.19575   0.85601   0.65479   1.000
    Zr297   Zr   0.19561   0.84264   0.64228   1.000
    Zr298   Zr   0.21014   0.84485   0.63066   1.000
    Zr299   Zr   0.22011   0.86048   0.63610   1.000
    Zr300   Zr   0.21052   0.86725   0.65152   1.000
    Zr301   Zr   0.21308   0.83576   0.61901   1.000
    Zr302   Zr   0.21405   0.87937   0.65979   1.000
    Zr303   Zr   0.15679   0.80470   0.64334   1.000
    Zr304   Zr   0.14378   0.80475   0.65636   1.000
    Zr305   Zr   0.13232   0.79005   0.65350   1.000
    Zr306   Zr   0.13854   0.78029   0.63794   1.000
    Zr307   Zr   0.15401   0.79011   0.63192   1.000
    Zr308   Zr   0.12047   0.78659   0.66218   1.000
    Zr309   Zr   0.16261   0.78696   0.61996   1.000
    Zr310   Zr   0.17092   0.82377   0.67030   1.000
    Zr311   Zr   0.15555   0.83829   0.65484   1.000
    Zr312   Zr   0.35577   0.65388   0.69504   1.000
    Zr313   Zr   0.34106   0.64294   0.69533   1.000
    Zr314   Zr   0.34277   0.63073   0.70959   1.000
    Zr315   Zr   0.35947   0.63426   0.71882   1.000
    Zr316   Zr   0.36732   0.64908   0.70911   1.000
    Zr317   Zr   0.33255   0.62018   0.71302   1.000
    Zr318   Zr   0.38041   0.65599   0.71204   1.000
    Zr319   Zr   0.32106   0.64553   0.67707   1.000
    Zr320   Zr   0.35858   0.67404   0.67704   1.000
    Zr321   Zr   0.32201   0.68092   0.64595   1.000
    Zr322   Zr   0.30413   0.64647   0.65580   1.000
    Zr323   Zr   0.30447   0.66033   0.64375   1.000
    Zr324   Zr   0.29089   0.65784   0.63098   1.000
    Zr325   Zr   0.28147   0.64141   0.63517   1.000
    Zr326   Zr   0.29035   0.63459   0.65104   1.000
    Zr327   Zr   0.28804   0.66745   0.61965   1.000
    Zr328   Zr   0.28703   0.62199   0.65870   1.000
    Zr329   Zr   0.34453   0.69668   0.64634   1.000
    Zr330   Zr   0.35863   0.69381   0.65790   1.000
    Zr331   Zr   0.37200   0.70657   0.65448   1.000
    Zr332   Zr   0.36610   0.71807   0.64001   1.000
    Zr333   Zr   0.34859   0.71131   0.63519   1.000
    Zr334   Zr   0.38510   0.70736   0.66197   1.000
    Zr335   Zr   0.33942   0.71660   0.62438   1.000
    Zr336   Zr   0.33056   0.67839   0.67379   1.000
    Zr337   Zr   0.34169   0.66264   0.65625   1.000
    Zr338   Zr   0.35702   0.15722   0.19207   1.000
    Zr339   Zr   0.34455   0.14375   0.19211   1.000
    Zr340   Zr   0.34845   0.13192   0.20632   1.000
    Zr341   Zr   0.36426   0.13833   0.21564   1.000
    Zr342   Zr   0.36919   0.15447   0.20613   1.000
    Zr343   Zr   0.34051   0.11947   0.20949   1.000
    Zr344   Zr   0.38081   0.16361   0.20911   1.000
    Zr345   Zr   0.32472   0.14302   0.17326   1.000
    Zr346   Zr   0.35715   0.17725   0.17366   1.000
    Zr347   Zr   0.32180   0.17702   0.14075   1.000
    Zr348   Zr   0.30442   0.14361   0.15488   1.000
    Zr349   Zr   0.30358   0.15703   0.14233   1.000
    Zr350   Zr   0.28863   0.15440   0.13131   1.000
    Zr351   Zr   0.27937   0.13846   0.13714   1.000
    Zr352   Zr   0.28986   0.13191   0.15218   1.000
    Zr353   Zr   0.28495   0.16340   0.11973   1.000
    Zr354   Zr   0.28707   0.11964   0.16056   1.000
    Zr355   Zr   0.34144   0.19615   0.14131   1.000
    Zr356   Zr   0.35492   0.19632   0.15388   1.000
    Zr357   Zr   0.36618   0.21102   0.15048   1.000
    Zr358   Zr   0.35946   0.22059   0.13499   1.000
    Zr359   Zr   0.34374   0.21069   0.12959   1.000
    Zr360   Zr   0.37837   0.21445   0.15870   1.000
    Zr361   Zr   0.33468   0.21372   0.11788   1.000
    Zr362   Zr   0.32874   0.17658   0.16885   1.000
    Zr363   Zr   0.34384   0.16252   0.15285   1.000
    Zr364   Zr   0.85588   0.65487   0.19673   1.000
    Zr365   Zr   0.84064   0.64480   0.19837   1.000
    Zr366   Zr   0.84256   0.63293   0.21284   1.000
    Zr367   Zr   0.86002   0.63569   0.22082   1.000
    Zr368   Zr   0.86806   0.64979   0.21018   1.000
    Zr369   Zr   0.83200   0.62302   0.21714   1.000
    Zr370   Zr   0.88179   0.65583   0.21195   1.000
    Zr371   Zr   0.82003   0.64757   0.18108   1.000
    Zr372   Zr   0.85857   0.67394   0.17743   1.000
    Zr373   Zr   0.82222   0.67780   0.14534   1.000
    Zr374   Zr   0.80420   0.64485   0.15931   1.000
    Zr375   Zr   0.80500   0.65663   0.14523   1.000
    Zr376   Zr   0.79231   0.65156   0.13227   1.000
    Zr377   Zr   0.78317   0.63561   0.13855   1.000
    Zr378   Zr   0.79116   0.63181   0.15580   1.000
    Zr379   Zr   0.79002   0.65891   0.11924   1.000
    Zr380   Zr   0.78764   0.62057   0.16529   1.000
    Zr381   Zr   0.84449   0.69410   0.14489   1.000
    Zr382   Zr   0.85837   0.69244   0.15696   1.000
    Zr383   Zr   0.87133   0.70550   0.15317   1.000
    Zr384   Zr   0.86545   0.71596   0.13792   1.000
    Zr385   Zr   0.84833   0.70825   0.13305   1.000
    Zr386   Zr   0.88401   0.70737   0.16114   1.000
    Zr387   Zr   0.83924   0.71261   0.12178   1.000
    Zr388   Zr   0.83069   0.67926   0.17316   1.000
    Zr389   Zr   0.84126   0.66079   0.15819   1.000
    Zr390   Zr   0.85924   0.15555   0.68995   1.000
    Zr391   Zr   0.84498   0.14425   0.69238   1.000
    Zr392   Zr   0.84788   0.13403   0.70797   1.000
    Zr393   Zr   0.86492   0.13923   0.71572   1.000
    Zr394   Zr   0.87171   0.15289   0.70377   1.000
    Zr395   Zr   0.83825   0.12370   0.71331   1.000
    Zr396   Zr   0.88479   0.16035   0.70489   1.000
    Zr397   Zr   0.82424   0.14396   0.67460   1.000
    Zr398   Zr   0.86080   0.17274   0.66888   1.000
    Zr399   Zr   0.81788   0.18251   0.64868   1.000
    Zr400   Zr   0.80427   0.14546   0.65599   1.000
    Zr401   Zr   0.80184   0.16078   0.64608   1.000
    Zr402   Zr   0.78715   0.15858   0.63459   1.000
    Zr403   Zr   0.77992   0.14080   0.63721   1.000
    Zr404   Zr   0.79116   0.13288   0.65101   1.000
    Zr405   Zr   0.78219   0.16925   0.62506   1.000
    Zr406   Zr   0.79000   0.11899   0.65689   1.000
    Zr407   Zr   0.83978   0.19878   0.64580   1.000
    Zr408   Zr   0.85634   0.19472   0.65288   1.000
    Zr409   Zr   0.86863   0.20793   0.64756   1.000
    Zr410   Zr   0.85936   0.22090   0.63644   1.000
    Zr411   Zr   0.84107   0.21460   0.63568   1.000
    Zr412   Zr   0.88327   0.20792   0.65134   1.000
    Zr413   Zr   0.82953   0.22085   0.62813   1.000
    Zr414   Zr   0.83331   0.17688   0.67309   1.000
    Zr415   Zr   0.83908   0.16392   0.65125   1.000
    Zr416   Zr   0.34601   0.35548   0.69669   1.000
    Zr417   Zr   0.35907   0.34257   0.69585   1.000
    Zr418   Zr   0.37113   0.34501   0.71006   1.000
    Zr419   Zr   0.36535   0.36026   0.72047   1.000
    Zr420   Zr   0.34932   0.36657   0.71150   1.000
    Zr421   Zr   0.38325   0.33635   0.71255   1.000
    Zr422   Zr   0.34066   0.37832   0.71538   1.000
    Zr423   Zr   0.35909   0.32402   0.67617   1.000
    Zr424   Zr   0.32592   0.35702   0.67839   1.000
    Zr425   Zr   0.32570   0.32374   0.64307   1.000
    Zr426   Zr   0.35889   0.30539   0.65656   1.000
    Zr427   Zr   0.34589   0.30524   0.64358   1.000
    Zr428   Zr   0.34931   0.29100   0.63176   1.000
    Zr429   Zr   0.36541   0.28168   0.63765   1.000
    Zr430   Zr   0.37098   0.29134   0.65349   1.000
    Zr431   Zr   0.34072   0.28780   0.61977   1.000
    Zr432   Zr   0.38297   0.28850   0.66220   1.000
    Zr433   Zr   0.30663   0.34372   0.64515   1.000
    Zr434   Zr   0.30682   0.35630   0.65860   1.000
    Zr435   Zr   0.29227   0.36802   0.65627   1.000
    Zr436   Zr   0.28230   0.36267   0.64059   1.000
    Zr437   Zr   0.29186   0.34717   0.63389   1.000
    Zr438   Zr   0.28926   0.37969   0.66532   1.000
    Zr439   Zr   0.28831   0.33893   0.62178   1.000
    Zr440   Zr   0.32569   0.32883   0.67140   1.000
    Zr441   Zr   0.34021   0.34457   0.65653   1.000
    Zr442   Zr   0.34291   0.85939   0.19407   1.000
    Zr443   Zr   0.35651   0.84703   0.19471   1.000
    Zr444   Zr   0.36799   0.85121   0.20902   1.000
    Zr445   Zr   0.36127   0.86713   0.21792   1.000
    Zr446   Zr   0.34523   0.87183   0.20793   1.000
    Zr447   Zr   0.38036   0.84326   0.21256   1.000
    Zr448   Zr   0.33593   0.88349   0.21034   1.000
    Zr449   Zr   0.35798   0.82696   0.17645   1.000
    Zr450   Zr   0.32335   0.85874   0.17508   1.000
    Zr451   Zr   0.32576   0.82295   0.14255   1.000
    Zr452   Zr   0.35913   0.80677   0.15830   1.000
    Zr453   Zr   0.34651   0.80539   0.14503   1.000
    Zr454   Zr   0.35067   0.79067   0.13414   1.000
    Zr455   Zr   0.36688   0.78222   0.14086   1.000
    Zr456   Zr   0.37177   0.79292   0.15631   1.000
    Zr457   Zr   0.34245   0.78661   0.12216   1.000
    Zr458   Zr   0.38373   0.79098   0.16535   1.000
    Zr459   Zr   0.30586   0.84209   0.14241   1.000
    Zr460   Zr   0.30493   0.85568   0.15479   1.000
    Zr461   Zr   0.28999   0.86651   0.15089   1.000
    Zr462   Zr   0.28101   0.85944   0.13526   1.000
    Zr463   Zr   0.29153   0.84392   0.13031   1.000
    Zr464   Zr   0.28597   0.87866   0.15887   1.000
    Zr465   Zr   0.28908   0.83473   0.11861   1.000
    Zr466   Zr   0.32460   0.83028   0.17041   1.000
    Zr467   Zr   0.33903   0.84544   0.15486   1.000
    Zr468   Zr   0.84503   0.35825   0.19595   1.000
    Zr469   Zr   0.85794   0.34521   0.19667   1.000
    Zr470   Zr   0.86966   0.34898   0.21096   1.000
    Zr471   Zr   0.86372   0.36538   0.21965   1.000
    Zr472   Zr   0.84798   0.37071   0.20961   1.000
    Zr473   Zr   0.88168   0.34052   0.21456   1.000
    Zr474   Zr   0.83931   0.38288   0.21179   1.000
    Zr475   Zr   0.85823   0.32495   0.17841   1.000
    Zr476   Zr   0.82573   0.35889   0.17702   1.000
    Zr477   Zr   0.82651   0.32455   0.14316   1.000
    Zr478   Zr   0.85877   0.30604   0.15883   1.000
    Zr479   Zr   0.84644   0.30594   0.14519   1.000
    Zr480   Zr   0.85030   0.29165   0.13360   1.000
    Zr481   Zr   0.86594   0.28220   0.14026   1.000
    Zr482   Zr   0.87089   0.29181   0.15634   1.000
    Zr483   Zr   0.84233   0.28852   0.12117   1.000
    Zr484   Zr   0.88255   0.28883   0.16548   1.000
    Zr485   Zr   0.80750   0.34469   0.14373   1.000
    Zr486   Zr   0.80726   0.35756   0.15688   1.000
    Zr487   Zr   0.79316   0.36955   0.15357   1.000
    Zr488   Zr   0.78398   0.36418   0.13747   1.000
    Zr489   Zr   0.79343   0.34825   0.13162   1.000
    Zr490   Zr   0.78991   0.38142   0.16226   1.000
    Zr491   Zr   0.79053   0.34008   0.11928   1.000
    Zr492   Zr   0.82530   0.33035   0.17110   1.000
    Zr493   Zr   0.84130   0.34507   0.15662   1.000
    Zr494   Zr   0.84335   0.85759   0.69246   1.000
    Zr495   Zr   0.85611   0.84435   0.69332   1.000
    Zr496   Zr   0.86786   0.84811   0.70759   1.000
    Zr497   Zr   0.86212   0.86460   0.71610   1.000
    Zr498   Zr   0.84648   0.87011   0.70604   1.000
    Zr499   Zr   0.87976   0.83954   0.71137   1.000
    Zr500   Zr   0.83795   0.88237   0.70830   1.000
    Zr501   Zr   0.85603   0.82366   0.67554   1.000
    Zr502   Zr   0.82373   0.85819   0.67369   1.000
    Zr503   Zr   0.82386   0.82270   0.64116   1.000
    Zr504   Zr   0.85614   0.80413   0.65647   1.000
    Zr505   Zr   0.84337   0.80404   0.64326   1.000
    Zr506   Zr   0.84622   0.78938   0.63198   1.000
    Zr507   Zr   0.86161   0.77951   0.63835   1.000
    Zr508   Zr   0.86765   0.78935   0.65395   1.000
    Zr509   Zr   0.83777   0.78630   0.61986   1.000
    Zr510   Zr   0.87940   0.78592   0.66286   1.000
    Zr511   Zr   0.80518   0.84276   0.64118   1.000
    Zr512   Zr   0.80506   0.85635   0.65357   1.000
    Zr513   Zr   0.79083   0.86808   0.64961   1.000
    Zr514   Zr   0.78153   0.86155   0.63392   1.000
    Zr515   Zr   0.79106   0.84544   0.62904   1.000
    Zr516   Zr   0.78764   0.88055   0.65747   1.000
    Zr517   Zr   0.78810   0.83636   0.61739   1.000
    Zr518   Zr   0.82304   0.82978   0.66920   1.000
    Zr519   Zr   0.83896   0.84386   0.65397   1.000
    Zr520   Zr   0.65741   0.64502   0.69539   1.000
    Zr521   Zr   0.64437   0.65790   0.69384   1.000
    Zr522   Zr   0.63171   0.65542   0.70752   1.000
    Zr523   Zr   0.63705   0.64013   0.71827   1.000
    Zr524   Zr   0.65351   0.63395   0.71009   1.000
    Zr525   Zr   0.61935   0.66394   0.70926   1.000
    Zr526   Zr   0.66187   0.62203   0.71421   1.000
    Zr527   Zr   0.64460   0.67626   0.67372   1.000
    Zr528   Zr   0.67776   0.64275   0.67752   1.000
    Zr529   Zr   0.67684   0.67296   0.63967   1.000
    Zr530   Zr   0.64456   0.69309   0.65228   1.000
    Zr531   Zr   0.65701   0.69153   0.63893   1.000
    Zr532   Zr   0.65386   0.70479   0.62595   1.000
    Zr533   Zr   0.63854   0.71535   0.63137   1.000
    Zr534   Zr   0.63300   0.70744   0.64819   1.000
    Zr535   Zr   0.66225   0.70664   0.61356   1.000
    Zr536   Zr   0.62152   0.71186   0.65692   1.000
    Zr537   Zr   0.69594   0.65342   0.64287   1.000
    Zr538   Zr   0.69694   0.64257   0.65779   1.000
    Zr539   Zr   0.71212   0.63146   0.65632   1.000
    Zr540   Zr   0.72087   0.63535   0.63955   1.000
    Zr541   Zr   0.71023   0.64930   0.63139   1.000
    Zr542   Zr   0.71632   0.62100   0.66646   1.000
    Zr543   Zr   0.71297   0.65615   0.61819   1.000
    Zr544   Zr   0.67779   0.67022   0.66844   1.000
    Zr545   Zr   0.66235   0.65354   0.65559   1.000
    Zr546   Zr   0.65821   0.14180   0.19648   1.000
    Zr547   Zr   0.64514   0.15469   0.19691   1.000
    Zr548   Zr   0.63381   0.15134   0.21155   1.000
    Zr549   Zr   0.64016   0.13542   0.22086   1.000
    Zr550   Zr   0.65575   0.12985   0.21076   1.000
    Zr551   Zr   0.62183   0.15984   0.21504   1.000
    Zr552   Zr   0.66462   0.11789   0.21335   1.000
    Zr553   Zr   0.64428   0.17437   0.17806   1.000
    Zr554   Zr   0.67714   0.14096   0.17714   1.000
    Zr555   Zr   0.67546   0.17512   0.14271   1.000
    Zr556   Zr   0.64332   0.19339   0.15860   1.000
    Zr557   Zr   0.65546   0.19372   0.14485   1.000
    Zr558   Zr   0.65147   0.20830   0.13354   1.000
    Zr559   Zr   0.63597   0.21766   0.14057   1.000
    Zr560   Zr   0.63124   0.20769   0.15649   1.000
    Zr561   Zr   0.65935   0.21183   0.12116   1.000
    Zr562   Zr   0.61978   0.21054   0.16585   1.000
    Zr563   Zr   0.69456   0.15498   0.14324   1.000
    Zr564   Zr   0.69513   0.14219   0.15654   1.000
    Zr565   Zr   0.70928   0.13029   0.15318   1.000
    Zr566   Zr   0.71817   0.13565   0.13690   1.000
    Zr567   Zr   0.70846   0.15146   0.13099   1.000
    Zr568   Zr   0.71276   0.11849   0.16196   1.000
    Zr569   Zr   0.71111   0.15964   0.11857   1.000
    Zr570   Zr   0.67720   0.16937   0.17073   1.000
    Zr571   Zr   0.66137   0.15428   0.15654   1.000
    Zr572   Zr   0.15571   0.64123   0.19461   1.000
    Zr573   Zr   0.14308   0.65458   0.19482   1.000
    Zr574   Zr   0.13104   0.65122   0.20894   1.000
    Zr575   Zr   0.13648   0.63480   0.21805   1.000
    Zr576   Zr   0.15225   0.62901   0.20841   1.000
    Zr577   Zr   0.11920   0.66002   0.21221   1.000
    Zr578   Zr   0.16070   0.61675   0.21103   1.000
    Zr579   Zr   0.14386   0.67482   0.17634   1.000
    Zr580   Zr   0.17570   0.64005   0.17645   1.000
    Zr581   Zr   0.17700   0.67464   0.14278   1.000
    Zr582   Zr   0.14447   0.69387   0.15667   1.000
    Zr583   Zr   0.15755   0.69365   0.14382   1.000
    Zr584   Zr   0.15493   0.70806   0.13203   1.000
    Zr585   Zr   0.13926   0.71807   0.13760   1.000
    Zr586   Zr   0.13299   0.70853   0.15339   1.000
    Zr587   Zr   0.16383   0.71082   0.12019   1.000
    Zr588   Zr   0.12098   0.71191   0.16187   1.000
    Zr589   Zr   0.19545   0.65417   0.14406   1.000
    Zr590   Zr   0.19491   0.64103   0.15698   1.000
    Zr591   Zr   0.20895   0.62886   0.15407   1.000
    Zr592   Zr   0.21890   0.63452   0.13849   1.000
    Zr593   Zr   0.20991   0.65069   0.13254   1.000
    Zr594   Zr   0.21157   0.61665   0.16259   1.000
    Zr595   Zr   0.21346   0.65921   0.12059   1.000
    Zr596   Zr   0.17696   0.66850   0.17088   1.000
    Zr597   Zr   0.16128   0.65423   0.15560   1.000
    Zr598   Zr   0.15416   0.14460   0.69585   1.000
    Zr599   Zr   0.14184   0.15821   0.69486   1.000
    Zr600   Zr   0.12952   0.15630   0.70896   1.000
    Zr601   Zr   0.13442   0.14060   0.71945   1.000
    Zr602   Zr   0.15021   0.13363   0.71057   1.000
    Zr603   Zr   0.11787   0.16564   0.71130   1.000
    Zr604   Zr   0.15822   0.12136   0.71427   1.000
    Zr605   Zr   0.14306   0.17697   0.67506   1.000
    Zr606   Zr   0.17420   0.14165   0.67783   1.000
    Zr607   Zr   0.17619   0.17396   0.64184   1.000
    Zr608   Zr   0.14411   0.19466   0.65430   1.000
    Zr609   Zr   0.15717   0.19340   0.64150   1.000
    Zr610   Zr   0.15474   0.20708   0.62881   1.000
    Zr611   Zr   0.13919   0.21762   0.63376   1.000
    Zr612   Zr   0.13283   0.20921   0.65011   1.000
    Zr613   Zr   0.16362   0.20895   0.61679   1.000
    Zr614   Zr   0.12088   0.21327   0.65838   1.000
    Zr615   Zr   0.19420   0.15327   0.64455   1.000
    Zr616   Zr   0.19344   0.14095   0.65826   1.000
    Zr617   Zr   0.20733   0.12841   0.65608   1.000
    Zr618   Zr   0.21735   0.13298   0.64017   1.000
    Zr619   Zr   0.20858   0.14889   0.63328   1.000
    Zr620   Zr   0.20982   0.11671   0.66533   1.000
    Zr621   Zr   0.21226   0.15665   0.62087   1.000
    Zr622   Zr   0.17602   0.16952   0.67036   1.000
    Zr623   Zr   0.16015   0.15457   0.65603   1.000
    Zr624   Zr   0.34312   0.64361   0.30648   1.000
    Zr625   Zr   0.35618   0.65651   0.30630   1.000
    Zr626   Zr   0.36773   0.65323   0.29179   1.000
    Zr627   Zr   0.36152   0.63744   0.28236   1.000
    Zr628   Zr   0.34587   0.63178   0.29221   1.000
    Zr629   Zr   0.37966   0.66179   0.28828   1.000
    Zr630   Zr   0.33706   0.61988   0.28931   1.000
    Zr631   Zr   0.35659   0.67637   0.32507   1.000
    Zr632   Zr   0.32318   0.64291   0.32489   1.000
    Zr633   Zr   0.32405   0.67694   0.35892   1.000
    Zr634   Zr   0.35719   0.69490   0.34517   1.000
    Zr635   Zr   0.34429   0.69481   0.35819   1.000
    Zr636   Zr   0.34763   0.70859   0.37040   1.000
    Zr637   Zr   0.36359   0.71811   0.36496   1.000
    Zr638   Zr   0.36928   0.70894   0.34875   1.000
    Zr639   Zr   0.33893   0.71131   0.38239   1.000
    Zr640   Zr   0.38132   0.71212   0.34024   1.000
    Zr641   Zr   0.30459   0.65776   0.35759   1.000
    Zr642   Zr   0.30423   0.64462   0.34474   1.000
    Zr643   Zr   0.28930   0.63354   0.34779   1.000
    Zr644   Zr   0.27981   0.64012   0.36330   1.000
    Zr645   Zr   0.28996   0.65547   0.36912   1.000
    Zr646   Zr   0.28554   0.62168   0.33927   1.000
    Zr647   Zr   0.28707   0.66419   0.38106   1.000
    Zr648   Zr   0.32334   0.67106   0.33052   1.000
    Zr649   Zr   0.33862   0.65579   0.34538   1.000
    Zr650   Zr   0.34382   0.14450   0.80655   1.000
    Zr651   Zr   0.35655   0.15772   0.80659   1.000
    Zr652   Zr   0.36834   0.15499   0.79226   1.000
    Zr653   Zr   0.36284   0.13917   0.78259   1.000
    Zr654   Zr   0.34714   0.13287   0.79213   1.000
    Zr655   Zr   0.38016   0.16384   0.78921   1.000
    Zr656   Zr   0.33876   0.12074   0.78890   1.000
    Zr657   Zr   0.35656   0.17728   0.82531   1.000
    Zr658   Zr   0.32398   0.14358   0.82535   1.000
    Zr659   Zr   0.32421   0.17869   0.85896   1.000
    Zr660   Zr   0.35675   0.19680   0.84409   1.000
    Zr661   Zr   0.34405   0.19734   0.85729   1.000
    Zr662   Zr   0.34743   0.21210   0.86844   1.000
    Zr663   Zr   0.36316   0.22137   0.86186   1.000
    Zr664   Zr   0.36863   0.21119   0.84637   1.000
    Zr665   Zr   0.33906   0.21573   0.88044   1.000
    Zr666   Zr   0.38051   0.21389   0.83749   1.000
    Zr667   Zr   0.30534   0.15859   0.85829   1.000
    Zr668   Zr   0.30520   0.14523   0.84559   1.000
    Zr669   Zr   0.29067   0.13374   0.84903   1.000
    Zr670   Zr   0.28116   0.14015   0.86464   1.000
    Zr671   Zr   0.29095   0.15594   0.87008   1.000
    Zr672   Zr   0.28721   0.12166   0.84070   1.000
    Zr673   Zr   0.28791   0.16483   0.88186   1.000
    Zr674   Zr   0.32339   0.17190   0.83084   1.000
    Zr675   Zr   0.33863   0.15715   0.84609   1.000
    Zr676   Zr   0.84280   0.64103   0.80432   1.000
    Zr677   Zr   0.85509   0.65458   0.80314   1.000
    Zr678   Zr   0.86613   0.65149   0.78820   1.000
    Zr679   Zr   0.86035   0.63511   0.77956   1.000
    Zr680   Zr   0.84550   0.62892   0.79028   1.000
    Zr681   Zr   0.87745   0.66050   0.78392   1.000
    Zr682   Zr   0.83733   0.61641   0.78821   1.000
    Zr683   Zr   0.85541   0.67475   0.82140   1.000
    Zr684   Zr   0.82424   0.63983   0.82396   1.000
    Zr685   Zr   0.82456   0.67495   0.85712   1.000
    Zr686   Zr   0.85595   0.69392   0.84066   1.000
    Zr687   Zr   0.84388   0.69404   0.85447   1.000
    Zr688   Zr   0.84764   0.70860   0.86575   1.000
    Zr689   Zr   0.86295   0.71818   0.85868   1.000
    Zr690   Zr   0.86780   0.70837   0.84272   1.000
    Zr691   Zr   0.83984   0.71183   0.87824   1.000
    Zr692   Zr   0.87923   0.71136   0.83336   1.000
    Zr693   Zr   0.80624   0.65426   0.85728   1.000
    Zr694   Zr   0.80647   0.64079   0.84473   1.000
    Zr695   Zr   0.79302   0.62834   0.84878   1.000
    Zr696   Zr   0.78378   0.63415   0.86464   1.000
    Zr697   Zr   0.79246   0.65073   0.86964   1.000
    Zr698   Zr   0.79008   0.61594   0.84071   1.000
    Zr699   Zr   0.78926   0.65930   0.88163   1.000
    Zr700   Zr   0.82285   0.66839   0.82928   1.000
    Zr701   Zr   0.83965   0.65450   0.84379   1.000
    Zr702   Zr   0.84649   0.14371   0.30522   1.000
    Zr703   Zr   0.85862   0.15747   0.30594   1.000
    Zr704   Zr   0.87108   0.15538   0.29200   1.000
    Zr705   Zr   0.86656   0.13944   0.28194   1.000
    Zr706   Zr   0.85081   0.13245   0.29081   1.000
    Zr707   Zr   0.88267   0.16471   0.28950   1.000
    Zr708   Zr   0.84304   0.12004   0.28719   1.000
    Zr709   Zr   0.85718   0.17662   0.32522   1.000
    Zr710   Zr   0.82622   0.14117   0.32320   1.000
    Zr711   Zr   0.82385   0.17431   0.35828   1.000
    Zr712   Zr   0.85592   0.19473   0.34549   1.000
    Zr713   Zr   0.84284   0.19374   0.35830   1.000
    Zr714   Zr   0.84532   0.20762   0.37071   1.000
    Zr715   Zr   0.86085   0.21795   0.36550   1.000
    Zr716   Zr   0.86719   0.20930   0.34936   1.000
    Zr717   Zr   0.83650   0.20985   0.38272   1.000
    Zr718   Zr   0.87922   0.21316   0.34113   1.000
    Zr719   Zr   0.80586   0.15361   0.35601   1.000
    Zr720   Zr   0.80673   0.14096   0.34267   1.000
    Zr721   Zr   0.79275   0.12858   0.34509   1.000
    Zr722   Zr   0.78254   0.13364   0.36074   1.000
    Zr723   Zr   0.79133   0.14962   0.36724   1.000
    Zr724   Zr   0.79026   0.11672   0.33612   1.000
    Zr725   Zr   0.78758   0.15768   0.37941   1.000
    Zr726   Zr   0.82421   0.16916   0.32987   1.000
    Zr727   Zr   0.84005   0.15453   0.34472   1.000
    Zr728   Zr   0.65521   0.35598   0.30641   1.000
    Zr729   Zr   0.64298   0.34233   0.30598   1.000
    Zr730   Zr   0.63048   0.34557   0.29233   1.000
    Zr731   Zr   0.63510   0.36217   0.28337   1.000
    Zr732   Zr   0.65099   0.36838   0.29280   1.000
    Zr733   Zr   0.61897   0.33633   0.28923   1.000
    Zr734   Zr   0.65887   0.38098   0.29015   1.000
    Zr735   Zr   0.64454   0.32131   0.32293   1.000
    Zr736   Zr   0.67529   0.35661   0.32505   1.000
    Zr737   Zr   0.67435   0.32165   0.35898   1.000
    Zr738   Zr   0.64207   0.30374   0.34334   1.000
    Zr739   Zr   0.65395   0.30359   0.35732   1.000
    Zr740   Zr   0.64926   0.28978   0.36924   1.000
    Zr741   Zr   0.63344   0.28077   0.36237   1.000
    Zr742   Zr   0.62933   0.29019   0.34587   1.000
    Zr743   Zr   0.65683   0.28669   0.38195   1.000
    Zr744   Zr   0.61800   0.28750   0.33626   1.000
    Zr745   Zr   0.69372   0.34126   0.35811   1.000
    Zr746   Zr   0.69415   0.35454   0.34527   1.000
    Zr747   Zr   0.70892   0.36573   0.34866   1.000
    Zr748   Zr   0.71827   0.35921   0.36440   1.000
    Zr749   Zr   0.70815   0.34365   0.36995   1.000
    Zr750   Zr   0.71257   0.37775   0.34025   1.000
    Zr751   Zr   0.71095   0.33476   0.38185   1.000
    Zr752   Zr   0.67693   0.32840   0.33095   1.000
    Zr753   Zr   0.65976   0.34235   0.34472   1.000
    Zr754   Zr   0.65594   0.85651   0.80544   1.000
    Zr755   Zr   0.64507   0.84180   0.80389   1.000
    Zr756   Zr   0.63265   0.84467   0.79007   1.000
    Zr757   Zr   0.63584   0.86217   0.78241   1.000
    Zr758   Zr   0.65082   0.86927   0.79251   1.000
    Zr759   Zr   0.62208   0.83470   0.78599   1.000
    Zr760   Zr   0.65728   0.88283   0.79087   1.000
    Zr761   Zr   0.64744   0.82044   0.82029   1.000
    Zr762   Zr   0.67544   0.85797   0.82457   1.000
    Zr763   Zr   0.67469   0.82314   0.85830   1.000
    Zr764   Zr   0.64438   0.80342   0.84106   1.000
    Zr765   Zr   0.65501   0.80452   0.85598   1.000
    Zr766   Zr   0.64967   0.79137   0.86832   1.000
    Zr767   Zr   0.63481   0.78150   0.86074   1.000
    Zr768   Zr   0.63188   0.78960   0.84336   1.000
    Zr769   Zr   0.65599   0.78939   0.88191   1.000
    Zr770   Zr   0.62144   0.78582   0.83311   1.000
    Zr771   Zr   0.69343   0.84323   0.85802   1.000
    Zr772   Zr   0.69379   0.85655   0.84524   1.000
    Zr773   Zr   0.70818   0.86810   0.84894   1.000
    Zr774   Zr   0.71734   0.86175   0.86487   1.000
    Zr775   Zr   0.70753   0.84592   0.87016   1.000
    Zr776   Zr   0.71165   0.88025   0.84066   1.000
    Zr777   Zr   0.71039   0.83695   0.88197   1.000
    Zr778   Zr   0.67862   0.82982   0.83028   1.000
    Zr779   Zr   0.65952   0.84252   0.84285   1.000
    Zr780   Zr   0.15883   0.35816   0.80631   1.000
    Zr781   Zr   0.14522   0.34586   0.80586   1.000
    Zr782   Zr   0.13406   0.34963   0.79115   1.000
    Zr783   Zr   0.14101   0.36517   0.78183   1.000
    Zr784   Zr   0.15679   0.37015   0.79193   1.000
    Zr785   Zr   0.12175   0.34168   0.78756   1.000
    Zr786   Zr   0.16611   0.38170   0.78917   1.000
    Zr787   Zr   0.14337   0.32631   0.82474   1.000
    Zr788   Zr   0.17808   0.35792   0.82563   1.000
    Zr789   Zr   0.17523   0.32294   0.85916   1.000
    Zr790   Zr   0.14208   0.30654   0.84345   1.000
    Zr791   Zr   0.15455   0.30536   0.85689   1.000
    Zr792   Zr   0.15036   0.29076   0.86800   1.000
    Zr793   Zr   0.13429   0.28218   0.86123   1.000
    Zr794   Zr   0.12952   0.29268   0.84554   1.000
    Zr795   Zr   0.15849   0.28683   0.88012   1.000
    Zr796   Zr   0.11774   0.29056   0.83634   1.000
    Zr797   Zr   0.19510   0.34205   0.85906   1.000
    Zr798   Zr   0.19619   0.35534   0.84629   1.000
    Zr799   Zr   0.21104   0.36624   0.85011   1.000
    Zr800   Zr   0.21980   0.35955   0.86609   1.000
    Zr801   Zr   0.20924   0.34416   0.87133   1.000
    Zr802   Zr   0.21510   0.37821   0.84186   1.000
    Zr803   Zr   0.21155   0.33522   0.88330   1.000
    Zr804   Zr   0.17671   0.32955   0.83109   1.000
    Zr805   Zr   0.16213   0.34517   0.84602   1.000
    Zr806   Zr   0.15256   0.85532   0.30531   1.000
    Zr807   Zr   0.14026   0.84175   0.30652   1.000
    Zr808   Zr   0.12761   0.84373   0.29269   1.000
    Zr809   Zr   0.13218   0.85943   0.28222   1.000
    Zr810   Zr   0.14816   0.86637   0.29071   1.000
    Zr811   Zr   0.11586   0.83452   0.29054   1.000
    Zr812   Zr   0.15601   0.87862   0.28672   1.000
    Zr813   Zr   0.14186   0.82310   0.32632   1.000
    Zr814   Zr   0.17314   0.85800   0.32296   1.000
    Zr815   Zr   0.17658   0.82459   0.35798   1.000
    Zr816   Zr   0.14415   0.80425   0.34588   1.000
    Zr817   Zr   0.15777   0.80494   0.35817   1.000
    Zr818   Zr   0.15602   0.79060   0.37023   1.000
    Zr819   Zr   0.14038   0.78020   0.36532   1.000
    Zr820   Zr   0.13325   0.78939   0.34969   1.000
    Zr821   Zr   0.16545   0.78814   0.38178   1.000
    Zr822   Zr   0.12097   0.78571   0.34172   1.000
    Zr823   Zr   0.19425   0.84555   0.35545   1.000
    Zr824   Zr   0.19295   0.85828   0.34214   1.000
    Zr825   Zr   0.20674   0.87087   0.34440   1.000
    Zr826   Zr   0.21728   0.86588   0.35991   1.000
    Zr827   Zr   0.20889   0.84970   0.36651   1.000
    Zr828   Zr   0.20880   0.88290   0.33548   1.000
    Zr829   Zr   0.21301   0.84159   0.37858   1.000
    Zr830   Zr   0.17507   0.82994   0.32963   1.000
    Zr831   Zr   0.16023   0.84477   0.34512   1.000
    Zr832   Zr   0.06562   0.01708   0.09181   1.000
    Zr833   Zr   0.08725   0.01691   0.11379   1.000
    Zr834   Zr   0.07225   0.02358   0.10692   1.000
    Zr835   Zr   0.93105   0.98206   0.09195   1.000
    Zr836   Zr   0.90896   0.98225   0.11337   1.000
    Zr837   Zr   0.92413   0.97559   0.10697   1.000
    Zr838   Zr   0.01754   0.09320   0.06590   1.000
    Zr839   Zr   0.01781   0.11512   0.08750   1.000
    Zr840   Zr   0.02430   0.10823   0.07249   1.000
    Zr841   Zr   0.97972   0.90582   0.06684   1.000
    Zr842   Zr   0.97909   0.88420   0.08885   1.000
    Zr843   Zr   0.97291   0.89085   0.07355   1.000
    Zr844   Zr   0.09326   0.06587   0.01740   1.000
    Zr845   Zr   0.11539   0.08730   0.01763   1.000
    Zr846   Zr   0.10845   0.07225   0.02404   1.000
    Zr847   Zr   0.90638   0.93308   0.01627   1.000
    Zr848   Zr   0.88417   0.91174   0.01601   1.000
    Zr849   Zr   0.89106   0.92672   0.02256   1.000
    Zr850   Zr   0.98049   0.06828   0.09148   1.000
    Zr851   Zr   0.98069   0.09007   0.11320   1.000
    Zr852   Zr   0.97407   0.07498   0.10659   1.000
    Zr853   Zr   0.01636   0.93104   0.09249   1.000
    Zr854   Zr   0.01598   0.90942   0.11451   1.000
    Zr855   Zr   0.02266   0.92443   0.10775   1.000
    Zr856   Zr   0.09129   0.97998   0.06704   1.000
    Zr857   Zr   0.11292   0.97993   0.08904   1.000
    Zr858   Zr   0.10638   0.97347   0.07387   1.000
    Zr859   Zr   0.90632   0.01892   0.06561   1.000
    Zr860   Zr   0.88415   0.01931   0.08695   1.000
    Zr861   Zr   0.89114   0.02566   0.07190   1.000
    Zr862   Zr   0.93273   0.09396   0.01557   1.000
    Zr863   Zr   0.91086   0.11574   0.01506   1.000
    Zr864   Zr   0.92590   0.10910   0.02188   1.000
    Zr865   Zr   0.06565   0.90400   0.01900   1.000
    Zr866   Zr   0.08754   0.88223   0.01933   1.000
    Zr867   Zr   0.07232   0.88888   0.02561   1.000
    Zr868   Zr   0.93157   0.01872   0.09158   1.000
    Zr869   Zr   0.90948   0.01901   0.11300   1.000
    Zr870   Zr   0.92476   0.02535   0.10655   1.000
    Zr871   Zr   0.06546   0.98038   0.09236   1.000
    Zr872   Zr   0.08711   0.98031   0.11433   1.000
    Zr873   Zr   0.07200   0.97391   0.10759   1.000
    Zr874   Zr   0.01626   0.90512   0.06730   1.000
    Zr875   Zr   0.01565   0.88347   0.08929   1.000
    Zr876   Zr   0.02238   0.88987   0.07417   1.000
    Zr877   Zr   0.98089   0.09383   0.06573   1.000
    Zr878   Zr   0.98100   0.11570   0.08737   1.000
    Zr879   Zr   0.97449   0.10906   0.07225   1.000
    Zr880   Zr   0.90760   0.06799   0.01538   1.000
    Zr881   Zr   0.88573   0.08978   0.01486   1.000
    Zr882   Zr   0.89239   0.07470   0.02161   1.000
    Zr883   Zr   0.09116   0.92962   0.01906   1.000
    Zr884   Zr   0.11314   0.90794   0.01933   1.000
    Zr885   Zr   0.10639   0.92312   0.02558   1.000
    Zr886   Zr   0.97982   0.93185   0.09189   1.000
    Zr887   Zr   0.97942   0.91025   0.11393   1.000
    Zr888   Zr   0.97319   0.92544   0.10705   1.000
    Zr889   Zr   0.01705   0.06764   0.09152   1.000
    Zr890   Zr   0.01737   0.08946   0.11321   1.000
    Zr891   Zr   0.02364   0.07419   0.10662   1.000
    Zr892   Zr   0.90594   0.98229   0.06585   1.000
    Zr893   Zr   0.88378   0.98254   0.08720   1.000
    Zr894   Zr   0.89065   0.97594   0.07224   1.000
    Zr895   Zr   0.09173   0.01652   0.06674   1.000
    Zr896   Zr   0.11332   0.01632   0.08878   1.000
    Zr897   Zr   0.10694   0.02273   0.07348   1.000
    Zr898   Zr   0.93127   0.90679   0.01683   1.000
    Zr899   Zr   0.90903   0.88547   0.01667   1.000
    Zr900   Zr   0.92421   0.89183   0.02333   1.000
    Zr901   Zr   0.06760   0.09153   0.01706   1.000
    Zr902   Zr   0.08970   0.11297   0.01728   1.000
    Zr903   Zr   0.07438   0.10657   0.02357   1.000
    Zr904   Zr   0.07633   0.99850   0.07729   1.000
    Zr905   Zr   0.10227   0.99837   0.10373   1.000
    Zr906   Zr   0.92092   0.00045   0.07663   1.000
    Zr907   Zr   0.89438   0.00083   0.10227   1.000
    Zr908   Zr   0.99894   0.07859   0.07649   1.000
    Zr909   Zr   0.99924   0.10479   0.10247   1.000
    Zr910   Zr   0.99811   0.92061   0.07741   1.000
    Zr911   Zr   0.99747   0.89468   0.10387   1.000
    Zr912   Zr   0.06737   0.97988   0.90634   1.000
    Zr913   Zr   0.08946   0.97934   0.88491   1.000
    Zr914   Zr   0.07415   0.97314   0.89139   1.000
    Zr915   Zr   0.93409   0.01822   0.90428   1.000
    Zr916   Zr   0.91243   0.01826   0.88232   1.000
    Zr917   Zr   0.92756   0.02467   0.88905   1.000
    Zr918   Zr   0.98294   0.09321   0.93043   1.000
    Zr919   Zr   0.98342   0.11500   0.90858   1.000
    Zr920   Zr   0.97676   0.10848   0.92370   1.000
    Zr921   Zr   0.01766   0.90488   0.93253   1.000
    Zr922   Zr   0.01765   0.88303   0.91085   1.000
    Zr923   Zr   0.02395   0.88958   0.92609   1.000
    Zr924   Zr   0.09093   0.93005   0.98268   1.000
    Zr925   Zr   0.11292   0.90837   0.98290   1.000
    Zr926   Zr   0.10623   0.92357   0.97644   1.000
    Zr927   Zr   0.90766   0.06815   0.97878   1.000
    Zr928   Zr   0.88575   0.08989   0.97829   1.000
    Zr929   Zr   0.89252   0.07470   0.97207   1.000
    Zr930   Zr   0.01923   0.06686   0.90543   1.000
    Zr931   Zr   0.01974   0.08854   0.88347   1.000
    Zr932   Zr   0.02588   0.07327   0.89029   1.000
    Zr933   Zr   0.98175   0.93105   0.90641   1.000
    Zr934   Zr   0.98176   0.90916   0.88478   1.000
    Zr935   Zr   0.97542   0.92444   0.89122   1.000
    Zr936   Zr   0.09305   0.01643   0.93186   1.000
    Zr937   Zr   0.11517   0.01581   0.91047   1.000
    Zr938   Zr   0.10842   0.02255   0.92541   1.000
    Zr939   Zr   0.90818   0.98196   0.93002   1.000
    Zr940   Zr   0.88652   0.98211   0.90804   1.000
    Zr941   Zr   0.89301   0.97565   0.92329   1.000
    Zr942   Zr   0.06821   0.09177   0.98050   1.000
    Zr943   Zr   0.09029   0.11324   0.98073   1.000
    Zr944   Zr   0.07513   0.10682   0.97408   1.000
    Zr945   Zr   0.93173   0.90645   0.98033   1.000
    Zr946   Zr   0.90953   0.88509   0.98025   1.000
    Zr947   Zr   0.92492   0.89133   0.97400   1.000
    Zr948   Zr   0.93362   0.98154   0.90440   1.000
    Zr949   Zr   0.91197   0.98161   0.88243   1.000
    Zr950   Zr   0.92697   0.97496   0.88931   1.000
    Zr951   Zr   0.06745   0.01652   0.90618   1.000
    Zr952   Zr   0.08954   0.01599   0.88476   1.000
    Zr953   Zr   0.07437   0.02275   0.89108   1.000
    Zr954   Zr   0.98116   0.90519   0.93177   1.000
    Zr955   Zr   0.98115   0.88328   0.91015   1.000
    Zr956   Zr   0.97462   0.89007   0.92516   1.000
    Zr957   Zr   0.01948   0.09280   0.93056   1.000
    Zr958   Zr   0.02005   0.11456   0.90868   1.000
    Zr959   Zr   0.02628   0.10782   0.92392   1.000
    Zr960   Zr   0.90662   0.93268   0.97968   1.000
    Zr961   Zr   0.88441   0.91133   0.97946   1.000
    Zr962   Zr   0.89145   0.92631   0.97300   1.000
    Zr963   Zr   0.09350   0.06578   0.98083   1.000
    Zr964   Zr   0.11560   0.08723   0.98104   1.000
    Zr965   Zr   0.10879   0.07220   0.97450   1.000
    Zr966   Zr   0.01824   0.93041   0.90673   1.000
    Zr967   Zr   0.01824   0.90860   0.88502   1.000
    Zr968   Zr   0.02471   0.92374   0.89164   1.000
    Zr969   Zr   0.98276   0.06783   0.90470   1.000
    Zr970   Zr   0.98318   0.08954   0.88277   1.000
    Zr971   Zr   0.97651   0.07447   0.88943   1.000
    Zr972   Zr   0.90829   0.01849   0.92967   1.000
    Zr973   Zr   0.88660   0.01858   0.90773   1.000
    Zr974   Zr   0.89315   0.02498   0.92293   1.000
    Zr975   Zr   0.09197   0.97990   0.93292   1.000
    Zr976   Zr   0.11413   0.97928   0.91156   1.000
    Zr977   Zr   0.10716   0.97315   0.92671   1.000
    Zr978   Zr   0.06601   0.90388   0.98249   1.000
    Zr979   Zr   0.08789   0.88209   0.98268   1.000
    Zr980   Zr   0.07276   0.88875   0.97609   1.000
    Zr981   Zr   0.93331   0.09376   0.97899   1.000
    Zr982   Zr   0.91145   0.11555   0.97848   1.000
    Zr983   Zr   0.92673   0.10891   0.97233   1.000
    Zr984   Zr   0.07773   0.99826   0.92143   1.000
    Zr985   Zr   0.10429   0.99753   0.89579   1.000
    Zr986   Zr   0.92326   0.00006   0.91925   1.000
    Zr987   Zr   0.89722   0.00018   0.89292   1.000
    Zr988   Zr   0.07846   0.07657   0.99892   1.000
    Zr989   Zr   0.10494   0.10235   0.99920   1.000
    Zr990   Zr   0.07620   0.91901   0.00081   1.000
    Zr991   Zr   0.10257   0.89296   0.00106   1.000
    Zr992   Zr   0.92252   0.07880   0.99718   1.000
    Zr993   Zr   0.89625   0.10490   0.99660   1.000
    Zr994   Zr   0.92122   0.92190   0.99825   1.000
    Zr995   Zr   0.89453   0.89630   0.99807   1.000
    Zr996   Zr   0.00104   0.07802   0.91997   1.000
    Zr997   Zr   0.00165   0.10410   0.89369   1.000
    Zr998   Zr   0.99972   0.92006   0.92155   1.000
    Zr999   Zr   0.99973   0.89383   0.89551   1.000
    Zr1000  Zr   0.98308   0.43297   0.40808   1.000
    Zr1001  Zr   0.98301   0.41135   0.38617   1.000
    Zr1002  Zr   0.97649   0.42642   0.39298   1.000
    Zr1003  Zr   0.01823   0.56887   0.40867   1.000
    Zr1004  Zr   0.01787   0.59079   0.38693   1.000
    Zr1005  Zr   0.02450   0.57565   0.39350   1.000
    Zr1006  Zr   0.90626   0.48195   0.43306   1.000
    Zr1007  Zr   0.88472   0.48229   0.41098   1.000
    Zr1008  Zr   0.89111   0.47571   0.42622   1.000
    Zr1009  Zr   0.09307   0.51877   0.43276   1.000
    Zr1010  Zr   0.11472   0.51924   0.41087   1.000
    Zr1011  Zr   0.10823   0.52526   0.42624   1.000
    Zr1012  Zr   0.93216   0.40709   0.48096   1.000
    Zr1013  Zr   0.91068   0.38502   0.48084   1.000
    Zr1014  Zr   0.92575   0.39189   0.47442   1.000
    Zr1015  Zr   0.06829   0.59345   0.48264   1.000
    Zr1016  Zr   0.09002   0.61529   0.48263   1.000
    Zr1017  Zr   0.07481   0.60870   0.47627   1.000
    Zr1018  Zr   0.93268   0.51829   0.40808   1.000
    Zr1019  Zr   0.91133   0.51847   0.38581   1.000
    Zr1020  Zr   0.92640   0.52479   0.39277   1.000
    Zr1021  Zr   0.06740   0.48284   0.40658   1.000
    Zr1022  Zr   0.08891   0.48344   0.38456   1.000
    Zr1023  Zr   0.07390   0.47673   0.39127   1.000
    Zr1024  Zr   0.01997   0.40675   0.43284   1.000
    Zr1025  Zr   0.01992   0.38515   0.41093   1.000
    Zr1026  Zr   0.02650   0.39169   0.42605   1.000
    Zr1027  Zr   0.98144   0.59434   0.43411   1.000
    Zr1028  Zr   0.98131   0.61617   0.41229   1.000
    Zr1029  Zr   0.97493   0.60951   0.42743   1.000
    Zr1030  Zr   0.90702   0.56778   0.48223   1.000
    Zr1031  Zr   0.88511   0.58953   0.48246   1.000
    Zr1032  Zr   0.89185   0.57448   0.47582   1.000
    Zr1033  Zr   0.09546   0.43303   0.48078   1.000
    Zr1034  Zr   0.11741   0.41132   0.48060   1.000
    Zr1035  Zr   0.11052   0.42640   0.47409   1.000
    Zr1036  Zr   0.98176   0.56824   0.40896   1.000
    Zr1037  Zr   0.98153   0.59007   0.38714   1.000
    Zr1038  Zr   0.97536   0.57475   0.39372   1.000
    Zr1039  Zr   0.01962   0.43246   0.40713   1.000
    Zr1040  Zr   0.01953   0.41087   0.38521   1.000
    Zr1041  Zr   0.02591   0.42604   0.39182   1.000
    Zr1042  Zr   0.09351   0.48231   0.43167   1.000
    Zr1043  Zr   0.11502   0.48281   0.40965   1.000
    Zr1044  Zr   0.10862   0.47603   0.42475   1.000
    Zr1045  Zr   0.90662   0.51853   0.43308   1.000
    Zr1046  Zr   0.88519   0.51895   0.41090   1.000
    Zr1047  Zr   0.89168   0.52529   0.42616   1.000
    Zr1048  Zr   0.93183   0.59403   0.48241   1.000
    Zr1049  Zr   0.90999   0.61585   0.48270   1.000
    Zr1050  Zr   0.92513   0.60930   0.47614   1.000
    Zr1051  Zr   0.06990   0.40754   0.48114   1.000
    Zr1052  Zr   0.09180   0.38578   0.48120   1.000
    Zr1053  Zr   0.07657   0.39237   0.47479   1.000
    Zr1054  Zr   0.06769   0.51947   0.40689   1.000
    Zr1055  Zr   0.08927   0.52007   0.38496   1.000
    Zr1056  Zr   0.07418   0.52635   0.39185   1.000
    Zr1057  Zr   0.93240   0.48172   0.40804   1.000
    Zr1058  Zr   0.91093   0.48183   0.38590   1.000
    Zr1059  Zr   0.92598   0.47527   0.39281   1.000
    Zr1060  Zr   0.01805   0.59415   0.43446   1.000
    Zr1061  Zr   0.01783   0.61603   0.41268   1.000
    Zr1062  Zr   0.02441   0.60933   0.42780   1.000
    Zr1063  Zr   0.98321   0.40685   0.43306   1.000
    Zr1064  Zr   0.98319   0.38523   0.41116   1.000
    Zr1065  Zr   0.97662   0.39184   0.42625   1.000
    Zr1066  Zr   0.09371   0.56763   0.48249   1.000
    Zr1067  Zr   0.11555   0.58936   0.48243   1.000
    Zr1068  Zr   0.10885   0.57422   0.47602   1.000
    Zr1069  Zr   0.90610   0.43232   0.48138   1.000
    Zr1070  Zr   0.88451   0.41036   0.48132   1.000
    Zr1071  Zr   0.89095   0.42566   0.47496   1.000
    Zr1072  Zr   0.00158   0.42188   0.42250   1.000
    Zr1073  Zr   0.00140   0.39597   0.39621   1.000
    Zr1074  Zr   0.99986   0.57923   0.42378   1.000
    Zr1075  Zr   0.99957   0.60547   0.39759   1.000
    Zr1076  Zr   0.92162   0.50008   0.42279   1.000
    Zr1077  Zr   0.89590   0.50041   0.39617   1.000
    Zr1078  Zr   0.07822   0.50081   0.42164   1.000
    Zr1079  Zr   0.10412   0.50146   0.39529   1.000
    Zr1080  Zr   0.01943   0.43206   0.59204   1.000
    Zr1081  Zr   0.01947   0.40998   0.61361   1.000
    Zr1082  Zr   0.02581   0.42528   0.60721   1.000
    Zr1083  Zr   0.98244   0.56620   0.59283   1.000
    Zr1084  Zr   0.98243   0.58779   0.61476   1.000
    Zr1085  Zr   0.97604   0.57268   0.60804   1.000
    Zr1086  Zr   0.90715   0.51733   0.56733   1.000
    Zr1087  Zr   0.88551   0.51720   0.58922   1.000
    Zr1088  Zr   0.89198   0.52369   0.57401   1.000
    Zr1089  Zr   0.09492   0.48130   0.56762   1.000
    Zr1090  Zr   0.11662   0.48107   0.58954   1.000
    Zr1091  Zr   0.11012   0.47485   0.57425   1.000
    Zr1092  Zr   0.07026   0.40752   0.51756   1.000
    Zr1093  Zr   0.09221   0.38580   0.51771   1.000
    Zr1094  Zr   0.07699   0.39240   0.52410   1.000
    Zr1095  Zr   0.93251   0.59316   0.51880   1.000
    Zr1096  Zr   0.91066   0.61497   0.51922   1.000
    Zr1097  Zr   0.92594   0.60826   0.52543   1.000
    Zr1098  Zr   0.93297   0.48066   0.59271   1.000
    Zr1099  Zr   0.91145   0.48045   0.61471   1.000
    Zr1100  Zr   0.92652   0.47402   0.60786   1.000
    Zr1101  Zr   0.06896   0.51741   0.59326   1.000
    Zr1102  Zr   0.09058   0.51736   0.61527   1.000
    Zr1103  Zr   0.07541   0.52376   0.60852   1.000
    Zr1104  Zr   0.98322   0.40655   0.56579   1.000
    Zr1105  Zr   0.98349   0.38441   0.58730   1.000
    Zr1106  Zr   0.97694   0.39122   0.57223   1.000
    Zr1107  Zr   0.01889   0.59214   0.56756   1.000
    Zr1108  Zr   0.01878   0.61369   0.58953   1.000
    Zr1109  Zr   0.02518   0.60729   0.57431   1.000
    Zr1110  Zr   0.90637   0.43181   0.51790   1.000
    Zr1111  Zr   0.88484   0.40979   0.51802   1.000
    Zr1112  Zr   0.89140   0.42495   0.52454   1.000
    Zr1113  Zr   0.09410   0.56757   0.51895   1.000
    Zr1114  Zr   0.11590   0.58933   0.51899   1.000
    Zr1115  Zr   0.10930   0.57412   0.52538   1.000
    Zr1116  Zr   0.01896   0.56614   0.59289   1.000
    Zr1117  Zr   0.01881   0.58772   0.61484   1.000
    Zr1118  Zr   0.02527   0.57260   0.60816   1.000
    Zr1119  Zr   0.98285   0.43192   0.59160   1.000
    Zr1120  Zr   0.98304   0.40973   0.61305   1.000
    Zr1121  Zr   0.97644   0.42495   0.60661   1.000
    Zr1122  Zr   0.09446   0.51777   0.56772   1.000
    Zr1123  Zr   0.11621   0.51766   0.58960   1.000
    Zr1124  Zr   0.10958   0.52420   0.57444   1.000
    Zr1125  Zr   0.90734   0.48078   0.56720   1.000
    Zr1126  Zr   0.88578   0.48066   0.58917   1.000
    Zr1127  Zr   0.89230   0.47426   0.57397   1.000
    Zr1128  Zr   0.06842   0.59310   0.51904   1.000
    Zr1129  Zr   0.09011   0.61498   0.51917   1.000
    Zr1130  Zr   0.07497   0.60825   0.52554   1.000
    Zr1131  Zr   0.93260   0.40683   0.51739   1.000
    Zr1132  Zr   0.91118   0.38469   0.51743   1.000
    Zr1133  Zr   0.92634   0.39149   0.52376   1.000
    Zr1134  Zr   0.06899   0.48093   0.59282   1.000
    Zr1135  Zr   0.09059   0.48075   0.61485   1.000
    Zr1136  Zr   0.07548   0.47437   0.60802   1.000
    Zr1137  Zr   0.93290   0.51722   0.59286   1.000
    Zr1138  Zr   0.91134   0.51708   0.61483   1.000
    Zr1139  Zr   0.92643   0.52356   0.60810   1.000
    Zr1140  Zr   0.98242   0.59209   0.56741   1.000
    Zr1141  Zr   0.98245   0.61366   0.58937   1.000
    Zr1142  Zr   0.97606   0.60725   0.57412   1.000
    Zr1143  Zr   0.01992   0.40707   0.56590   1.000
    Zr1144  Zr   0.02003   0.38503   0.58751   1.000
    Zr1145  Zr   0.02656   0.39194   0.57252   1.000
    Zr1146  Zr   0.09561   0.43332   0.51736   1.000
    Zr1147  Zr   0.11762   0.41167   0.51724   1.000
    Zr1148  Zr   0.11087   0.42676   0.52373   1.000
    Zr1149  Zr   0.90686   0.56769   0.51876   1.000
    Zr1150  Zr   0.88489   0.58937   0.51910   1.000
    Zr1151  Zr   0.89169   0.57415   0.52535   1.000
    Zr1152  Zr   0.00134   0.42161   0.57666   1.000
    Zr1153  Zr   0.00151   0.39505   0.60249   1.000
    Zr1154  Zr   0.00068   0.57696   0.57796   1.000
    Zr1155  Zr   0.00061   0.60287   0.60434   1.000
    Zr1156  Zr   0.92141   0.42174   0.49940   1.000
    Zr1157  Zr   0.89565   0.39525   0.49939   1.000
    Zr1158  Zr   0.08064   0.42255   0.49922   1.000
    Zr1159  Zr   0.10698   0.39648   0.49921   1.000
    Zr1160  Zr   0.92174   0.57850   0.50053   1.000
    Zr1161  Zr   0.89542   0.60458   0.50093   1.000
    Zr1162  Zr   0.07896   0.57826   0.50078   1.000
    Zr1163  Zr   0.10510   0.60442   0.50080   1.000
    Zr1164  Zr   0.92227   0.49904   0.57785   1.000
    Zr1165  Zr   0.89635   0.49887   0.60418   1.000
    Zr1166  Zr   0.07966   0.49935   0.57817   1.000
    Zr1167  Zr   0.10568   0.49918   0.60452   1.000
    Zr1168  Zr   0.48191   0.93304   0.40715   1.000
    Zr1169  Zr   0.48243   0.91129   0.38538   1.000
    Zr1170  Zr   0.47563   0.92631   0.39198   1.000
    Zr1171  Zr   0.51671   0.06723   0.40654   1.000
    Zr1172  Zr   0.51655   0.08930   0.38495   1.000
    Zr1173  Zr   0.52310   0.07407   0.39148   1.000
    Zr1174  Zr   0.40611   0.98125   0.43179   1.000
    Zr1175  Zr   0.38428   0.98101   0.41000   1.000
    Zr1176  Zr   0.39103   0.97462   0.42516   1.000
    Zr1177  Zr   0.59296   0.01997   0.43307   1.000
    Zr1178  Zr   0.61488   0.02014   0.41146   1.000
    Zr1179  Zr   0.60809   0.02655   0.42654   1.000
    Zr1180  Zr   0.43278   0.90631   0.48127   1.000
    Zr1181  Zr   0.41118   0.88436   0.48123   1.000
    Zr1182  Zr   0.42627   0.89113   0.47478   1.000
    Zr1183  Zr   0.56563   0.09280   0.48268   1.000
    Zr1184  Zr   0.58686   0.11511   0.48290   1.000
    Zr1185  Zr   0.57197   0.10808   0.47624   1.000
    Zr1186  Zr   0.43133   0.01810   0.40635   1.000
    Zr1187  Zr   0.40959   0.01786   0.38448   1.000
    Zr1188  Zr   0.42462   0.02451   0.39119   1.000
    Zr1189  Zr   0.56780   0.98319   0.40765   1.000
    Zr1190  Zr   0.58962   0.98323   0.38594   1.000
    Zr1191  Zr   0.57447   0.97676   0.39254   1.000
    Zr1192  Zr   0.51888   0.90779   0.43279   1.000
    Zr1193  Zr   0.51946   0.88608   0.41098   1.000
    Zr1194  Zr   0.52569   0.89276   0.42618   1.000
    Zr1195  Zr   0.48026   0.09235   0.43241   1.000
    Zr1196  Zr   0.48006   0.11458   0.41099   1.000
    Zr1197  Zr   0.47372   0.10762   0.42605   1.000
    Zr1198  Zr   0.40536   0.06583   0.48159   1.000
    Zr1199  Zr   0.38349   0.08763   0.48164   1.000
    Zr1200  Zr   0.39021   0.07258   0.47508   1.000
    Zr1201  Zr   0.59307   0.93410   0.48298   1.000
    Zr1202  Zr   0.61525   0.91261   0.48317   1.000
    Zr1203  Zr   0.60842   0.92773   0.47673   1.000
    Zr1204  Zr   0.48015   0.06754   0.40617   1.000
    Zr1205  Zr   0.47991   0.08968   0.38468   1.000
    Zr1206  Zr   0.47353   0.07441   0.39114   1.000
    Zr1207  Zr   0.51847   0.93385   0.40754   1.000
    Zr1208  Zr   0.51890   0.91216   0.38572   1.000
    Zr1209  Zr   0.52503   0.92741   0.39239   1.000
    Zr1210  Zr   0.59317   0.98345   0.43344   1.000
    Zr1211  Zr   0.61511   0.98347   0.41185   1.000
    Zr1212  Zr   0.60842   0.97705   0.42699   1.000
    Zr1213  Zr   0.40549   0.01776   0.43157   1.000
    Zr1214  Zr   0.38369   0.01766   0.40976   1.000
    Zr1215  Zr   0.39028   0.02414   0.42491   1.000
    Zr1216  Zr   0.43126   0.09117   0.48199   1.000
    Zr1217  Zr   0.40930   0.11288   0.48193   1.000
    Zr1218  Zr   0.42455   0.10635   0.47559   1.000
    Zr1219  Zr   0.56762   0.90844   0.48266   1.000
    Zr1220  Zr   0.58979   0.88694   0.48274   1.000
    Zr1221  Zr   0.57457   0.89346   0.47619   1.000
    Zr1222  Zr   0.56739   0.01962   0.40741   1.000
    Zr1223  Zr   0.58921   0.01976   0.38570   1.000
    Zr1224  Zr   0.57391   0.02602   0.39220   1.000
    Zr1225  Zr   0.43168   0.98154   0.40631   1.000
    Zr1226  Zr   0.40994   0.98120   0.38443   1.000
    Zr1227  Zr   0.42517   0.97493   0.39119   1.000
    Zr1228  Zr   0.51677   0.09262   0.43220   1.000
    Zr1229  Zr   0.51669   0.11476   0.41070   1.000
    Zr1230  Zr   0.52320   0.10788   0.42576   1.000
    Zr1231  Zr   0.48232   0.90753   0.43285   1.000
    Zr1232  Zr   0.48292   0.88580   0.41106   1.000
    Zr1233  Zr   0.47620   0.89231   0.42612   1.000
    Zr1234  Zr   0.59217   0.06819   0.48282   1.000
    Zr1235  Zr   0.61340   0.09051   0.48303   1.000
    Zr1236  Zr   0.60715   0.07527   0.47644   1.000
    Zr1237  Zr   0.40717   0.93198   0.48112   1.000
    Zr1238  Zr   0.38554   0.91004   0.48125   1.000
    Zr1239  Zr   0.39204   0.92523   0.47472   1.000
    Zr1240  Zr   0.50037   0.92273   0.42229   1.000
    Zr1241  Zr   0.50100   0.89666   0.39610   1.000
    Zr1242  Zr   0.49847   0.07771   0.42146   1.000
    Zr1243  Zr   0.49830   0.10431   0.39568   1.000
    Zr1244  Zr   0.42082   0.99969   0.42119   1.000
    Zr1245  Zr   0.39470   0.99941   0.39496   1.000
    Zr1246  Zr   0.57816   0.00156   0.42257   1.000
    Zr1247  Zr   0.60443   0.00166   0.39658   1.000
    Zr1248  Zr   0.51812   0.93232   0.59364   1.000
    Zr1249  Zr   0.51848   0.91035   0.61531   1.000
    Zr1250  Zr   0.52469   0.92565   0.60876   1.000
    Zr1251  Zr   0.47976   0.06702   0.59503   1.000
    Zr1252  Zr   0.47943   0.08901   0.61655   1.000
    Zr1253  Zr   0.47325   0.07367   0.61011   1.000
    Zr1254  Zr   0.40631   0.01747   0.56866   1.000
    Zr1255  Zr   0.38426   0.01707   0.59014   1.000
    Zr1256  Zr   0.39098   0.02369   0.57511   1.000
    Zr1257  Zr   0.59166   0.98310   0.56840   1.000
    Zr1258  Zr   0.61341   0.98307   0.59029   1.000
    Zr1259  Zr   0.60684   0.97671   0.57511   1.000
    Zr1260  Zr   0.56784   0.90765   0.51912   1.000
    Zr1261  Zr   0.58995   0.88610   0.51919   1.000
    Zr1262  Zr   0.57466   0.89250   0.52553   1.000
    Zr1263  Zr   0.43077   0.09121   0.51853   1.000
    Zr1264  Zr   0.40882   0.11293   0.51826   1.000
    Zr1265  Zr   0.42394   0.10633   0.52489   1.000
    Zr1266  Zr   0.43196   0.98087   0.59417   1.000
    Zr1267  Zr   0.40987   0.98017   0.61560   1.000
    Zr1268  Zr   0.42521   0.97404   0.60910   1.000
    Zr1269  Zr   0.56588   0.01940   0.59400   1.000
    Zr1270  Zr   0.58776   0.01929   0.61575   1.000
    Zr1271  Zr   0.57258   0.02577   0.60914   1.000
    Zr1272  Zr   0.48191   0.90667   0.56780   1.000
    Zr1273  Zr   0.48204   0.88469   0.58947   1.000
    Zr1274  Zr   0.47554   0.89144   0.57435   1.000
    Zr1275  Zr   0.51566   0.09249   0.56863   1.000
    Zr1276  Zr   0.51534   0.11468   0.58996   1.000
    Zr1277  Zr   0.52185   0.10787   0.57492   1.000
    Zr1278  Zr   0.40727   0.93203   0.51763   1.000
    Zr1279  Zr   0.38557   0.91017   0.51775   1.000
    Zr1280  Zr   0.39215   0.92539   0.52411   1.000
    Zr1281  Zr   0.59213   0.06811   0.51934   1.000
    Zr1282  Zr   0.61340   0.09039   0.51954   1.000
    Zr1283  Zr   0.60713   0.07503   0.52587   1.000
    Zr1284  Zr   0.51625   0.06787   0.59511   1.000
    Zr1285  Zr   0.51613   0.08993   0.61656   1.000
    Zr1286  Zr   0.52280   0.07481   0.61007   1.000
    Zr1287  Zr   0.48163   0.93213   0.59339   1.000
    Zr1288  Zr   0.48198   0.91017   0.61508   1.000
    Zr1289  Zr   0.47532   0.92530   0.60850   1.000
    Zr1290  Zr   0.59178   0.01953   0.56870   1.000
    Zr1291  Zr   0.61361   0.01937   0.59050   1.000
    Zr1292  Zr   0.60702   0.02582   0.57531   1.000
    Zr1293  Zr   0.40725   0.98108   0.56770   1.000
    Zr1294  Zr   0.38507   0.98063   0.58905   1.000
    Zr1295  Zr   0.39198   0.97453   0.57389   1.000
    Zr1296  Zr   0.56554   0.09288   0.51926   1.000
    Zr1297  Zr   0.58678   0.11519   0.51945   1.000
    Zr1298  Zr   0.57173   0.10819   0.52576   1.000
    Zr1299  Zr   0.43310   0.90664   0.51781   1.000
    Zr1300  Zr   0.41145   0.88473   0.51783   1.000
    Zr1301  Zr   0.42653   0.89148   0.52433   1.000
    Zr1302  Zr   0.56613   0.98278   0.59389   1.000
    Zr1303  Zr   0.58793   0.98279   0.61572   1.000
    Zr1304  Zr   0.57287   0.97623   0.60898   1.000
    Zr1305  Zr   0.43179   0.01739   0.59442   1.000
    Zr1306  Zr   0.40979   0.01676   0.61594   1.000
    Zr1307  Zr   0.42493   0.02348   0.60958   1.000
    Zr1308  Zr   0.47920   0.09231   0.56909   1.000
    Zr1309  Zr   0.47873   0.11442   0.59049   1.000
    Zr1310  Zr   0.47245   0.10746   0.57542   1.000
    Zr1311  Zr   0.51843   0.90704   0.56783   1.000
    Zr1312  Zr   0.51859   0.88503   0.58948   1.000
    Zr1313  Zr   0.52500   0.89186   0.57441   1.000
    Zr1314  Zr   0.59275   0.93386   0.51940   1.000
    Zr1315  Zr   0.61488   0.91232   0.51958   1.000
    Zr1316  Zr   0.60795   0.92737   0.52596   1.000
    Zr1317  Zr   0.40549   0.06537   0.51823   1.000
    Zr1318  Zr   0.38363   0.08718   0.51811   1.000
    Zr1319  Zr   0.39035   0.07207   0.52466   1.000
    Zr1320  Zr   0.50002   0.92175   0.57848   1.000
    Zr1321  Zr   0.50030   0.89534   0.60451   1.000
    Zr1322  Zr   0.49772   0.07768   0.57987   1.000
    Zr1323  Zr   0.49737   0.10424   0.60553   1.000
    Zr1324  Zr   0.42226   0.92142   0.49943   1.000
    Zr1325  Zr   0.39627   0.89512   0.49955   1.000
    Zr1326  Zr   0.57809   0.92317   0.50106   1.000
    Zr1327  Zr   0.60469   0.89732   0.50115   1.000
    Zr1328  Zr   0.42040   0.07617   0.50008   1.000
    Zr1329  Zr   0.39411   0.10232   0.49995   1.000
    Zr1330  Zr   0.57676   0.07823   0.50106   1.000
    Zr1331  Zr   0.60220   0.10507   0.50127   1.000
    Zr1332  Zr   0.42157   0.99928   0.57912   1.000
    Zr1333  Zr   0.39503   0.99858   0.60484   1.000
    Zr1334  Zr   0.57663   0.00125   0.57906   1.000
    Zr1335  Zr   0.60283   0.00114   0.60531   1.000
    Zr1336  Zr   0.48198   0.43345   0.90712   1.000
    Zr1337  Zr   0.48139   0.41146   0.88560   1.000
    Zr1338  Zr   0.47530   0.42683   0.89209   1.000
    Zr1339  Zr   0.51987   0.56700   0.90551   1.000
    Zr1340  Zr   0.52001   0.58869   0.88356   1.000
    Zr1341  Zr   0.52640   0.57353   0.89035   1.000
    Zr1342  Zr   0.40723   0.48284   0.93359   1.000
    Zr1343  Zr   0.38512   0.48315   0.91208   1.000
    Zr1344  Zr   0.39187   0.47662   0.92718   1.000
    Zr1345  Zr   0.59358   0.51765   0.93274   1.000
    Zr1346  Zr   0.61577   0.51722   0.91141   1.000
    Zr1347  Zr   0.60884   0.52399   0.92627   1.000
    Zr1348  Zr   0.43250   0.40918   0.98375   1.000
    Zr1349  Zr   0.41079   0.38734   0.98402   1.000
    Zr1350  Zr   0.42587   0.39399   0.97740   1.000
    Zr1351  Zr   0.56789   0.59284   0.98202   1.000
    Zr1352  Zr   0.58982   0.61447   0.98166   1.000
    Zr1353  Zr   0.57463   0.60785   0.97532   1.000
    Zr1354  Zr   0.43293   0.51902   0.90757   1.000
    Zr1355  Zr   0.41082   0.51932   0.88605   1.000
    Zr1356  Zr   0.42620   0.52548   0.89241   1.000
    Zr1357  Zr   0.56809   0.48093   0.90735   1.000
    Zr1358  Zr   0.59027   0.48046   0.88601   1.000
    Zr1359  Zr   0.57494   0.47422   0.89244   1.000
    Zr1360  Zr   0.51783   0.40723   0.93304   1.000
    Zr1361  Zr   0.51739   0.38514   0.91162   1.000
    Zr1362  Zr   0.52396   0.39184   0.92668   1.000
    Zr1363  Zr   0.48366   0.59295   0.93111   1.000
    Zr1364  Zr   0.48377   0.61467   0.90918   1.000
    Zr1365  Zr   0.47744   0.60824   0.92446   1.000
    Zr1366  Zr   0.40988   0.56971   0.98215   1.000
    Zr1367  Zr   0.38825   0.59174   0.98181   1.000
    Zr1368  Zr   0.39466   0.57634   0.97574   1.000
    Zr1369  Zr   0.59175   0.43180   0.98320   1.000
    Zr1370  Zr   0.61324   0.40962   0.98330   1.000
    Zr1371  Zr   0.60681   0.42490   0.97681   1.000
    Zr1372  Zr   0.48328   0.56699   0.90599   1.000
    Zr1373  Zr   0.48333   0.58863   0.88399   1.000
    Zr1374  Zr   0.47677   0.57359   0.89084   1.000
    Zr1375  Zr   0.51855   0.43239   0.90701   1.000
    Zr1376  Zr   0.51810   0.41038   0.88552   1.000
    Zr1377  Zr   0.52494   0.42542   0.89201   1.000
    Zr1378  Zr   0.59325   0.48100   0.93337   1.000
    Zr1379  Zr   0.61547   0.48053   0.91207   1.000
    Zr1380  Zr   0.60844   0.47427   0.92712   1.000
    Zr1381  Zr   0.40806   0.51940   0.93376   1.000
    Zr1382  Zr   0.38590   0.51974   0.91229   1.000
    Zr1383  Zr   0.39290   0.52608   0.92732   1.000
    Zr1384  Zr   0.43573   0.59508   0.98161   1.000
    Zr1385  Zr   0.41411   0.61711   0.98122   1.000
    Zr1386  Zr   0.42916   0.61017   0.97484   1.000
    Zr1387  Zr   0.56591   0.40649   0.98342   1.000
    Zr1388  Zr   0.58747   0.38439   0.98351   1.000
    Zr1389  Zr   0.57242   0.39127   0.97701   1.000
    Zr1390  Zr   0.56842   0.51746   0.90672   1.000
    Zr1391  Zr   0.59059   0.51701   0.88537   1.000
    Zr1392  Zr   0.57538   0.52368   0.89163   1.000
    Zr1393  Zr   0.43280   0.48263   0.90796   1.000
    Zr1394  Zr   0.41074   0.48292   0.88638   1.000
    Zr1395  Zr   0.42601   0.47639   0.89282   1.000
    Zr1396  Zr   0.51998   0.59231   0.93127   1.000
    Zr1397  Zr   0.52016   0.61407   0.90939   1.000
    Zr1398  Zr   0.52646   0.60745   0.92465   1.000
    Zr1399  Zr   0.48138   0.40836   0.93323   1.000
    Zr1400  Zr   0.48078   0.38624   0.91184   1.000
    Zr1401  Zr   0.47457   0.39324   0.92693   1.000
    Zr1402  Zr   0.59333   0.56707   0.98208   1.000
    Zr1403  Zr   0.61520   0.58877   0.98172   1.000
    Zr1404  Zr   0.60845   0.57361   0.97547   1.000
    Zr1405  Zr   0.40662   0.43454   0.98376   1.000
    Zr1406  Zr   0.38486   0.41274   0.98398   1.000
    Zr1407  Zr   0.39147   0.42784   0.97736   1.000
    Zr1408  Zr   0.50000   0.42259   0.92220   1.000
    Zr1409  Zr   0.49932   0.39609   0.89649   1.000
    Zr1410  Zr   0.50169   0.57758   0.92062   1.000
    Zr1411  Zr   0.50181   0.60366   0.89428   1.000
    Zr1412  Zr   0.42245   0.50092   0.92290   1.000
    Zr1413  Zr   0.39589   0.50130   0.89707   1.000
    Zr1414  Zr   0.57864   0.49932   0.92220   1.000
    Zr1415  Zr   0.60526   0.49874   0.89659   1.000
    Zr1416  Zr   0.51906   0.43402   0.09549   1.000
    Zr1417  Zr   0.51890   0.41241   0.11752   1.000
    Zr1418  Zr   0.52561   0.42735   0.11061   1.000
    Zr1419  Zr   0.48338   0.56933   0.09389   1.000
    Zr1420  Zr   0.48396   0.59094   0.11580   1.000
    Zr1421  Zr   0.47720   0.57595   0.10913   1.000
    Zr1422  Zr   0.40833   0.52078   0.06800   1.000
    Zr1423  Zr   0.38644   0.52151   0.08962   1.000
    Zr1424  Zr   0.39328   0.52764   0.07443   1.000
    Zr1425  Zr   0.59471   0.48149   0.06764   1.000
    Zr1426  Zr   0.61672   0.48138   0.08925   1.000
    Zr1427  Zr   0.60981   0.47484   0.07427   1.000
    Zr1428  Zr   0.56618   0.40656   0.02003   1.000
    Zr1429  Zr   0.58765   0.38438   0.01996   1.000
    Zr1430  Zr   0.57267   0.39130   0.02650   1.000
    Zr1431  Zr   0.43563   0.59566   0.01829   1.000
    Zr1432  Zr   0.41396   0.61766   0.01785   1.000
    Zr1433  Zr   0.42896   0.61088   0.02459   1.000
    Zr1434  Zr   0.43351   0.48430   0.09421   1.000
    Zr1435  Zr   0.41166   0.48489   0.11587   1.000
    Zr1436  Zr   0.42681   0.47818   0.10944   1.000
    Zr1437  Zr   0.56919   0.51844   0.09245   1.000
    Zr1438  Zr   0.59116   0.51843   0.11412   1.000
    Zr1439  Zr   0.57594   0.52491   0.10750   1.000
    Zr1440  Zr   0.48217   0.40911   0.06995   1.000
    Zr1441  Zr   0.48186   0.38736   0.09185   1.000
    Zr1442  Zr   0.47560   0.39400   0.07657   1.000
    Zr1443  Zr   0.52006   0.59459   0.06829   1.000
    Zr1444  Zr   0.52057   0.61635   0.09005   1.000
    Zr1445  Zr   0.52679   0.60964   0.07486   1.000
    Zr1446  Zr   0.40679   0.43465   0.02036   1.000
    Zr1447  Zr   0.38504   0.41284   0.02061   1.000
    Zr1448  Zr   0.39168   0.42803   0.02695   1.000
    Zr1449  Zr   0.59385   0.56741   0.01855   1.000
    Zr1450  Zr   0.61574   0.58909   0.01804   1.000
    Zr1451  Zr   0.60915   0.57400   0.02468   1.000
    Zr1452  Zr   0.51992   0.56848   0.09335   1.000
    Zr1453  Zr   0.52057   0.59014   0.11520   1.000
    Zr1454  Zr   0.52671   0.57491   0.10841   1.000
    Zr1455  Zr   0.48240   0.43444   0.09569   1.000
    Zr1456  Zr   0.48205   0.41286   0.11773   1.000
    Zr1457  Zr   0.47577   0.42804   0.11085   1.000
    Zr1458  Zr   0.59523   0.51808   0.06744   1.000
    Zr1459  Zr   0.61724   0.51805   0.08905   1.000
    Zr1460  Zr   0.61046   0.52450   0.07395   1.000
    Zr1461  Zr   0.40740   0.48417   0.06906   1.000
    Zr1462  Zr   0.38549   0.48485   0.09066   1.000
    Zr1463  Zr   0.39211   0.47803   0.07571   1.000
    Zr1464  Zr   0.56845   0.59337   0.01863   1.000
    Zr1465  Zr   0.59042   0.61497   0.01810   1.000
    Zr1466  Zr   0.57533   0.60852   0.02483   1.000
    Zr1467  Zr   0.43266   0.40919   0.02034   1.000
    Zr1468  Zr   0.41096   0.38733   0.02057   1.000
    Zr1469  Zr   0.42615   0.39402   0.02690   1.000
    Zr1470  Zr   0.56930   0.48200   0.09332   1.000
    Zr1471  Zr   0.59130   0.48200   0.11495   1.000
    Zr1472  Zr   0.57601   0.47568   0.10853   1.000
    Zr1473  Zr   0.43335   0.52082   0.09422   1.000
    Zr1474  Zr   0.41149   0.52142   0.11589   1.000
    Zr1475  Zr   0.42678   0.52754   0.10927   1.000
    Zr1476  Zr   0.48361   0.59495   0.06829   1.000
    Zr1477  Zr   0.48395   0.61664   0.09011   1.000
    Zr1478  Zr   0.47735   0.61016   0.07496   1.000
    Zr1479  Zr   0.51853   0.40797   0.07048   1.000
    Zr1480  Zr   0.51832   0.38626   0.09242   1.000
    Zr1481  Zr   0.52473   0.39266   0.07716   1.000
    Zr1482  Zr   0.59219   0.43175   0.01962   1.000
    Zr1483  Zr   0.61361   0.40950   0.01958   1.000
    Zr1484  Zr   0.60734   0.42484   0.02591   1.000
    Zr1485  Zr   0.41010   0.57009   0.01850   1.000
    Zr1486  Zr   0.38846   0.59212   0.01807   1.000
    Zr1487  Zr   0.39494   0.57693   0.02472   1.000
    Zr1488  Zr   0.50058   0.42359   0.08077   1.000
    Zr1489  Zr   0.50022   0.39760   0.10713   1.000
    Zr1490  Zr   0.50169   0.57968   0.07877   1.000
    Zr1491  Zr   0.50231   0.60568   0.10500   1.000
    Zr1492  Zr   0.42179   0.42409   0.00205   1.000
    Zr1493  Zr   0.39575   0.39787   0.00232   1.000
    Zr1494  Zr   0.57680   0.42136   0.00159   1.000
    Zr1495  Zr   0.60262   0.39473   0.00159   1.000
    Zr1496  Zr   0.42508   0.58048   0.00015   1.000
    Zr1497  Zr   0.39907   0.60691   0.99967   1.000
    Zr1498  Zr   0.57864   0.57801   0.00040   1.000
    Zr1499  Zr   0.60498   0.60401   0.99984   1.000
    Zr1500  Zr   0.42281   0.50247   0.07919   1.000
    Zr1501  Zr   0.39656   0.50321   0.10516   1.000
    Zr1502  Zr   0.57996   0.49999   0.07797   1.000
    Zr1503  Zr   0.60631   0.49998   0.10402   1.000
    O1504   O    0.36458   0.35401   0.28419   1.000
    O1505   O    0.35437   0.36546   0.28479   1.000
    O1506   O    0.14179   0.13595   0.28407   1.000
    O1507   O    0.12907   0.14389   0.28738   1.000
    O1508   O    0.15591   0.12952   0.28411   1.000
    O1509   O    0.63235   0.64719   0.28634   1.000
    O1510   O    0.64255   0.63570   0.28657   1.000
    O1511   O    0.85869   0.13594   0.28637   1.000
    O1512   O    0.86882   0.14741   0.28697   1.000
    O1513   O    0.86547   0.85801   0.28662   1.000
    O1514   O    0.85452   0.86876   0.28698   1.000
    O1515   O    0.14017   0.86290   0.28647   1.000
    O1516   O    0.12989   0.85158   0.28746   1.000
    O1517   O    0.36463   0.64534   0.28708   1.000
    O1518   O    0.35370   0.63461   0.28729   1.000
    O1519   O    0.63279   0.35387   0.28785   1.000
    O1520   O    0.64305   0.36528   0.28809   1.000
    O1521   O    0.37299   0.34129   0.28709   1.000
    O1522   O    0.15209   0.87250   0.28871   1.000
    O1523   O    0.84693   0.12625   0.28900   1.000
    O1524   O    0.15214   0.13886   0.29525   1.000
    O1525   O    0.34282   0.37509   0.28872   1.000
    O1526   O    0.62412   0.65994   0.28937   1.000
    O1527   O    0.87456   0.84571   0.28952   1.000
    O1528   O    0.37369   0.65751   0.29003   1.000
    O1529   O    0.65416   0.62602   0.29000   1.000
    O1530   O    0.36179   0.34470   0.29629   1.000
    O1531   O    0.62473   0.34095   0.29078   1.000
    O1532   O    0.84220   0.87740   0.29058   1.000
    O1533   O    0.34147   0.62583   0.29076   1.000
    O1534   O    0.87688   0.16005   0.29075   1.000
    O1535   O    0.34542   0.36297   0.29730   1.000
    O1536   O    0.65493   0.37468   0.29148   1.000
    O1537   O    0.12174   0.83913   0.29162   1.000
    O1538   O    0.15036   0.86085   0.29801   1.000
    O1539   O    0.84865   0.13808   0.29802   1.000
    O1540   O    0.63590   0.65663   0.29805   1.000
    O1541   O    0.86263   0.84807   0.29831   1.000
    O1542   O    0.65221   0.63829   0.29843   1.000
    O1543   O    0.36195   0.65487   0.29905   1.000
    O1544   O    0.84516   0.86529   0.29885   1.000
    O1545   O    0.86485   0.15643   0.29897   1.000
    O1546   O    0.34450   0.63770   0.29935   1.000
    O1547   O    0.63673   0.34395   0.29916   1.000
    O1548   O    0.13394   0.84274   0.29961   1.000
    O1549   O    0.65310   0.36218   0.29961   1.000
    O1550   O    0.11835   0.15290   0.29397   1.000
    O1551   O    0.13180   0.15155   0.30052   1.000
    O1552   O    0.14588   0.14839   0.30518   1.000
    O1553   O    0.16423   0.14387   0.31159   1.000
    O1554   O    0.35012   0.35030   0.30416   1.000
    O1555   O    0.35724   0.33368   0.31305   1.000
    O1556   O    0.33487   0.35754   0.31477   1.000
    O1557   O    0.64799   0.65106   0.30533   1.000
    O1558   O    0.64158   0.66761   0.31457   1.000
    O1559   O    0.85256   0.15059   0.30558   1.000
    O1560   O    0.83635   0.14244   0.31421   1.000
    O1561   O    0.14641   0.84854   0.30591   1.000
    O1562   O    0.16285   0.85666   0.31414   1.000
    O1563   O    0.85023   0.85270   0.30563   1.000
    O1564   O    0.85705   0.83605   0.31467   1.000
    O1565   O    0.66364   0.64361   0.31517   1.000
    O1566   O    0.83386   0.85913   0.31508   1.000
    O1567   O    0.85790   0.16705   0.31558   1.000
    O1568   O    0.64910   0.34916   0.30620   1.000
    O1569   O    0.64376   0.33182   0.31446   1.000
    O1570   O    0.34965   0.65006   0.30639   1.000
    O1571   O    0.35638   0.66644   0.31569   1.000
    O1572   O    0.66525   0.35630   0.31573   1.000
    O1573   O    0.33315   0.64326   0.31569   1.000
    O1574   O    0.14106   0.83243   0.31642   1.000
    O1575   O    0.13712   0.16060   0.31835   1.000
    O1576   O    0.18416   0.14352   0.32995   1.000
    O1577   O    0.35816   0.31453   0.33236   1.000
    O1578   O    0.64330   0.31253   0.33314   1.000
    O1579   O    0.17410   0.84397   0.32630   1.000
    O1580   O    0.18305   0.85814   0.33255   1.000
    O1581   O    0.16669   0.85139   0.33404   1.000
    O1582   O    0.82522   0.15517   0.32654   1.000
    O1583   O    0.81647   0.14107   0.33293   1.000
    O1584   O    0.83314   0.14785   0.33396   1.000
    O1585   O    0.84321   0.82579   0.32647   1.000
    O1586   O    0.85632   0.81623   0.33385   1.000
    O1587   O    0.85061   0.83306   0.33434   1.000
    O1588   O    0.64201   0.68649   0.33407   1.000
    O1589   O    0.81416   0.85901   0.33361   1.000
    O1590   O    0.68282   0.64273   0.33441   1.000
    O1591   O    0.32326   0.65699   0.32771   1.000
    O1592   O    0.31371   0.64377   0.33482   1.000
    O1593   O    0.33090   0.64935   0.33514   1.000
    O1594   O    0.31634   0.35756   0.33485   1.000
    O1595   O    0.67611   0.34251   0.32800   1.000
    O1596   O    0.66752   0.34948   0.33489   1.000
    O1597   O    0.68472   0.35558   0.33516   1.000
    O1598   O    0.35689   0.68564   0.33512   1.000
    O1599   O    0.85655   0.18568   0.33536   1.000
    O1600   O    0.14301   0.81368   0.33610   1.000
    O1601   O    0.14969   0.17180   0.32826   1.000
    O1602   O    0.13736   0.17830   0.33858   1.000
    O1603   O    0.32799   0.32428   0.34378   1.000
    O1604   O    0.67228   0.67592   0.34481   1.000
    O1605   O    0.20760   0.12380   0.33894   1.000
    O1606   O    0.20777   0.87689   0.33994   1.000
    O1607   O    0.37602   0.28948   0.34047   1.000
    O1608   O    0.79151   0.12265   0.34061   1.000
    O1609   O    0.62367   0.28884   0.34107   1.000
    O1610   O    0.78877   0.87699   0.34096   1.000
    O1611   O    0.70778   0.62421   0.34194   1.000
    O1612   O    0.62507   0.71167   0.34278   1.000
    O1613   O    0.87270   0.79009   0.34322   1.000
    O1614   O    0.28742   0.62761   0.34353   1.000
    O1615   O    0.19999   0.13645   0.34156   1.000
    O1616   O    0.19396   0.14952   0.34631   1.000
    O1617   O    0.29084   0.37492   0.34423   1.000
    O1618   O    0.37530   0.71053   0.34449   1.000
    O1619   O    0.71075   0.37174   0.34446   1.000
    O1620   O    0.87321   0.21123   0.34525   1.000
    O1621   O    0.12711   0.78755   0.34571   1.000
    O1622   O    0.19985   0.86458   0.34327   1.000
    O1623   O    0.19360   0.85192   0.34880   1.000
    O1624   O    0.36417   0.29810   0.34371   1.000
    O1625   O    0.35198   0.30522   0.34924   1.000
    O1626   O    0.79974   0.13477   0.34388   1.000
    O1627   O    0.80630   0.14729   0.34934   1.000
    O1628   O    0.79714   0.86490   0.34406   1.000
    O1629   O    0.80388   0.85237   0.34929   1.000
    O1630   O    0.21174   0.13258   0.35097   1.000
    O1631   O    0.63570   0.29697   0.34461   1.000
    O1632   O    0.64801   0.30367   0.35033   1.000
    O1633   O    0.86094   0.79922   0.34555   1.000
    O1634   O    0.84854   0.80667   0.35008   1.000
    O1635   O    0.69947   0.63628   0.34521   1.000
    O1636   O    0.69279   0.64875   0.35062   1.000
    O1637   O    0.63682   0.70279   0.34571   1.000
    O1638   O    0.64898   0.69532   0.35095   1.000
    O1639   O    0.33614   0.33141   0.35111   1.000
    O1640   O    0.21201   0.86838   0.35216   1.000
    O1641   O    0.29972   0.36299   0.34656   1.000
    O1642   O    0.30704   0.35050   0.35108   1.000
    O1643   O    0.29676   0.63908   0.34627   1.000
    O1644   O    0.30441   0.65119   0.35117   1.000
    O1645   O    0.36786   0.28634   0.35316   1.000
    O1646   O    0.78764   0.13111   0.35292   1.000
    O1647   O    0.36324   0.70192   0.34696   1.000
    O1648   O    0.35074   0.69486   0.35168   1.000
    O1649   O    0.78477   0.86798   0.35285   1.000
    O1650   O    0.70153   0.36014   0.34697   1.000
    O1651   O    0.69394   0.34790   0.35169   1.000
    O1652   O    0.66429   0.66865   0.35213   1.000
    O1653   O    0.86156   0.20202   0.34743   1.000
    O1654   O    0.84938   0.19424   0.35190   1.000
    O1655   O    0.63138   0.28548   0.35412   1.000
    O1656   O    0.13870   0.79682   0.34779   1.000
    O1657   O    0.15096   0.80460   0.35203   1.000
    O1658   O    0.16792   0.16798   0.34935   1.000
    O1659   O    0.71152   0.63263   0.35432   1.000
    O1660   O    0.11864   0.20116   0.34961   1.000
    O1661   O    0.63343   0.71432   0.35545   1.000
    O1662   O    0.86321   0.78702   0.35502   1.000
    O1663   O    0.13223   0.19486   0.34995   1.000
    O1664   O    0.14668   0.19061   0.35178   1.000
    O1665   O    0.28455   0.63683   0.35555   1.000
    O1666   O    0.28786   0.36562   0.35631   1.000
    O1667   O    0.71360   0.36247   0.35653   1.000
    O1668   O    0.36644   0.71353   0.35686   1.000
    O1669   O    0.86402   0.21363   0.35743   1.000
    O1670   O    0.13682   0.78480   0.35751   1.000
    O1671   O    0.12965   0.20762   0.35835   1.000
    O1672   O    0.18604   0.16682   0.35269   1.000
    O1673   O    0.20166   0.15403   0.35853   1.000
    O1674   O    0.16606   0.18512   0.35434   1.000
    O1675   O    0.18542   0.83507   0.35672   1.000
    O1676   O    0.20157   0.84763   0.36098   1.000
    O1677   O    0.81268   0.83581   0.35643   1.000
    O1678   O    0.79602   0.84744   0.36124   1.000
    O1679   O    0.15333   0.20042   0.36121   1.000
    O1680   O    0.81486   0.16396   0.35715   1.000
    O1681   O    0.79859   0.15162   0.36163   1.000
    O1682   O    0.33585   0.31467   0.35703   1.000
    O1683   O    0.34788   0.29817   0.36199   1.000
    O1684   O    0.83184   0.81626   0.35674   1.000
    O1685   O    0.84295   0.79945   0.36219   1.000
    O1686   O    0.68403   0.66528   0.35808   1.000
    O1687   O    0.70037   0.65309   0.36297   1.000
    O1688   O    0.66415   0.31262   0.35815   1.000
    O1689   O    0.65160   0.29669   0.36328   1.000
    O1690   O    0.31650   0.33396   0.35769   1.000
    O1691   O    0.30010   0.34516   0.36343   1.000
    O1692   O    0.31432   0.66735   0.35826   1.000
    O1693   O    0.29728   0.65662   0.36336   1.000
    O1694   O    0.66508   0.68523   0.35831   1.000
    O1695   O    0.65340   0.70194   0.36381   1.000
    O1696   O    0.16718   0.81477   0.35808   1.000
    O1697   O    0.68404   0.33146   0.35855   1.000
    O1698   O    0.70093   0.34246   0.36403   1.000
    O1699   O    0.15690   0.79777   0.36420   1.000
    O1700   O    0.33417   0.68588   0.35856   1.000
    O1701   O    0.34596   0.70170   0.36430   1.000
    O1702   O    0.83335   0.18403   0.35829   1.000
    O1703   O    0.84408   0.20068   0.36451   1.000
    O1704   O    0.21281   0.14359   0.36158   1.000
    O1705   O    0.21309   0.85779   0.36321   1.000
    O1706   O    0.78406   0.85707   0.36360   1.000
    O1707   O    0.78694   0.14163   0.36399   1.000
    O1708   O    0.35769   0.28637   0.36459   1.000
    O1709   O    0.71209   0.64314   0.36543   1.000
    O1710   O    0.64135   0.28528   0.36581   1.000
    O1711   O    0.85197   0.78719   0.36539   1.000
    O1712   O    0.28489   0.64780   0.36621   1.000
    O1713   O    0.64377   0.71381   0.36676   1.000
    O1714   O    0.28813   0.35446   0.36685   1.000
    O1715   O    0.21078   0.15628   0.37024   1.000
    O1716   O    0.14281   0.21110   0.36541   1.000
    O1717   O    0.71321   0.35143   0.36718   1.000
    O1718   O    0.35561   0.71335   0.36768   1.000
    O1719   O    0.14820   0.78540   0.36778   1.000
    O1720   O    0.85309   0.21279   0.36811   1.000
    O1721   O    0.15744   0.21138   0.37059   1.000
    O1722   O    0.21095   0.84565   0.37255   1.000
    O1723   O    0.78664   0.84474   0.37265   1.000
    O1724   O    0.78946   0.15365   0.37333   1.000
    O1725   O    0.34604   0.28958   0.37419   1.000
    O1726   O    0.83959   0.79068   0.37388   1.000
    O1727   O    0.70943   0.65518   0.37477   1.000
    O1728   O    0.28851   0.65983   0.37509   1.000
    O1729   O    0.65305   0.28824   0.37560   1.000
    O1730   O    0.29170   0.34194   0.37533   1.000
    O1731   O    0.65547   0.71015   0.37623   1.000
    O1732   O    0.70955   0.33921   0.37590   1.000
    O1733   O    0.16074   0.78937   0.37601   1.000
    O1734   O    0.34328   0.70995   0.37640   1.000
    O1735   O    0.84091   0.20874   0.37672   1.000
    O1736   O    0.41755   0.97807   0.38781   1.000
    O1737   O    0.40232   0.99031   0.38970   1.000
    O1738   O    0.41711   0.02119   0.38784   1.000
    O1739   O    0.40215   0.00864   0.38972   1.000
    O1740   O    0.08141   0.48009   0.38792   1.000
    O1741   O    0.09652   0.49245   0.38993   1.000
    O1742   O    0.47672   0.08205   0.38791   1.000
    O1743   O    0.48911   0.09700   0.39018   1.000
    O1744   O    0.51983   0.08169   0.38822   1.000
    O1745   O    0.50743   0.09681   0.39032   1.000
    O1746   O    0.08172   0.52321   0.38841   1.000
    O1747   O    0.09669   0.51077   0.39013   1.000
    O1748   O    0.02272   0.41846   0.38852   1.000
    O1749   O    0.01047   0.40342   0.39071   1.000
    O1750   O    0.47903   0.91880   0.38868   1.000
    O1751   O    0.49172   0.90398   0.39074   1.000
    O1752   O    0.58156   0.02289   0.38895   1.000
    O1753   O    0.59682   0.01071   0.39114   1.000
    O1754   O    0.52197   0.91979   0.38906   1.000
    O1755   O    0.50995   0.90441   0.39091   1.000
    O1756   O    0.91887   0.52163   0.38929   1.000
    O1757   O    0.90362   0.50944   0.39099   1.000
    O1758   O    0.91846   0.47855   0.38936   1.000
    O1759   O    0.90342   0.49112   0.39104   1.000
    O1760   O    0.58204   0.97999   0.38924   1.000
    O1761   O    0.59703   0.99245   0.39126   1.000
    O1762   O    0.97975   0.41889   0.38958   1.000
    O1763   O    0.99221   0.40366   0.39119   1.000
    O1764   O    0.02119   0.58322   0.39022   1.000
    O1765   O    0.00872   0.59813   0.39226   1.000
    O1766   O    0.97845   0.58241   0.39043   1.000
    O1767   O    0.99055   0.59777   0.39237   1.000
    O1768   O    0.47684   0.07098   0.39866   1.000
    O1769   O    0.42798   0.02131   0.39877   1.000
    O1770   O    0.42843   0.97824   0.39875   1.000
    O1771   O    0.07065   0.47979   0.39892   1.000
    O1772   O    0.51991   0.07065   0.39901   1.000
    O1773   O    0.02277   0.42925   0.39948   1.000
    O1774   O    0.07094   0.52291   0.39937   1.000
    O1775   O    0.47877   0.92968   0.39957   1.000
    O1776   O    0.57065   0.02282   0.39981   1.000
    O1777   O    0.52175   0.93063   0.39997   1.000
    O1778   O    0.57114   0.97997   0.40010   1.000
    O1779   O    0.92954   0.52154   0.40043   1.000
    O1780   O    0.92919   0.47850   0.40043   1.000
    O1781   O    0.97979   0.42970   0.40053   1.000
    O1782   O    0.02137   0.57226   0.40109   1.000
    O1783   O    0.97856   0.57150   0.40134   1.000
    O1784   O    0.38920   0.00854   0.40236   1.000
    O1785   O    0.38949   0.99021   0.40248   1.000
    O1786   O    0.10957   0.49214   0.40247   1.000
    O1787   O    0.10942   0.51035   0.40308   1.000
    O1788   O    0.50750   0.10954   0.40319   1.000
    O1789   O    0.48918   0.10945   0.40333   1.000
    O1790   O    0.51023   0.89137   0.40354   1.000
    O1791   O    0.49196   0.89123   0.40358   1.000
    O1792   O    0.89055   0.50968   0.40354   1.000
    O1793   O    0.89031   0.49135   0.40358   1.000
    O1794   O    0.01066   0.39056   0.40357   1.000
    O1795   O    0.99229   0.39060   0.40369   1.000
    O1796   O    0.60966   0.01090   0.40402   1.000
    O1797   O    0.60977   0.99257   0.40421   1.000
    O1798   O    0.99044   0.61082   0.40494   1.000
    O1799   O    0.00870   0.61075   0.40514   1.000
    O1800   O    0.48931   0.07262   0.41382   1.000
    O1801   O    0.42625   0.99062   0.41375   1.000
    O1802   O    0.42608   0.00890   0.41377   1.000
    O1803   O    0.50759   0.07247   0.41400   1.000
    O1804   O    0.07281   0.49183   0.41411   1.000
    O1805   O    0.07296   0.51014   0.41427   1.000
    O1806   O    0.01060   0.42717   0.41481   1.000
    O1807   O    0.49114   0.92789   0.41472   1.000
    O1808   O    0.57277   0.01059   0.41499   1.000
    O1809   O    0.50942   0.92829   0.41492   1.000
    O1810   O    0.57298   0.99238   0.41511   1.000
    O1811   O    0.92701   0.49090   0.41542   1.000
    O1812   O    0.92715   0.50919   0.41544   1.000
    O1813   O    0.99233   0.42743   0.41529   1.000
    O1814   O    0.00904   0.57405   0.41623   1.000
    O1815   O    0.99081   0.57373   0.41637   1.000
    O1816   O    0.11182   0.47942   0.41720   1.000
    O1817   O    0.38699   0.02090   0.41734   1.000
    O1818   O    0.38766   0.97782   0.41758   1.000
    O1819   O    0.51995   0.11132   0.41823   1.000
    O1820   O    0.11147   0.52225   0.41856   1.000
    O1821   O    0.88843   0.52212   0.41853   1.000
    O1822   O    0.02321   0.38842   0.41849   1.000
    O1823   O    0.52258   0.88942   0.41858   1.000
    O1824   O    0.88792   0.47900   0.41860   1.000
    O1825   O    0.47689   0.11110   0.41852   1.000
    O1826   O    0.47956   0.88906   0.41859   1.000
    O1827   O    0.97991   0.38854   0.41871   1.000
    O1828   O    0.61149   0.02335   0.41900   1.000
    O1829   O    0.61177   0.98026   0.41942   1.000
    O1830   O    0.97812   0.61284   0.41986   1.000
    O1831   O    0.02112   0.61268   0.42024   1.000
    O1832   O    0.41316   0.00873   0.42638   1.000
    O1833   O    0.41347   0.99047   0.42649   1.000
    O1834   O    0.50762   0.08516   0.42683   1.000
    O1835   O    0.48936   0.08503   0.42694   1.000
    O1836   O    0.08587   0.49156   0.42666   1.000
    O1837   O    0.08564   0.50979   0.42720   1.000
    O1838   O    0.50962   0.91526   0.42754   1.000
    O1839   O    0.49135   0.91513   0.42757   1.000
    O1840   O    0.01077   0.41432   0.42767   1.000
    O1841   O    0.99240   0.41437   0.42778   1.000
    O1842   O    0.58556   0.01077   0.42782   1.000
    O1843   O    0.58566   0.99251   0.42801   1.000
    O1844   O    0.91394   0.49102   0.42792   1.000
    O1845   O    0.91412   0.50931   0.42794   1.000
    O1846   O    0.99065   0.58679   0.42895   1.000
    O1847   O    0.00895   0.58669   0.42912   1.000
    O1848   O    0.10107   0.47917   0.42821   1.000
    O1849   O    0.39789   0.02095   0.42824   1.000
    O1850   O    0.39857   0.97794   0.42848   1.000
    O1851   O    0.51999   0.10025   0.42898   1.000
    O1852   O    0.02323   0.39922   0.42945   1.000
    O1853   O    0.47699   0.09999   0.42923   1.000
    O1854   O    0.47926   0.89992   0.42949   1.000
    O1855   O    0.89915   0.52191   0.42962   1.000
    O1856   O    0.52229   0.90028   0.42949   1.000
    O1857   O    0.89868   0.47883   0.42964   1.000
    O1858   O    0.10065   0.52202   0.42950   1.000
    O1859   O    0.97992   0.39935   0.42966   1.000
    O1860   O    0.60052   0.02326   0.42981   1.000
    O1861   O    0.60079   0.98025   0.43022   1.000
    O1862   O    0.97819   0.60193   0.43077   1.000
    O1863   O    0.02123   0.60174   0.43113   1.000
    O1864   O    0.11397   0.41886   0.47735   1.000
    O1865   O    0.10299   0.42972   0.47744   1.000
    O1866   O    0.91821   0.38846   0.47763   1.000
    O1867   O    0.92895   0.39949   0.47769   1.000
    O1868   O    0.39960   0.92861   0.47792   1.000
    O1869   O    0.38879   0.91764   0.47799   1.000
    O1870   O    0.41873   0.88775   0.47801   1.000
    O1871   O    0.42953   0.89872   0.47803   1.000
    O1872   O    0.07324   0.39996   0.47797   1.000
    O1873   O    0.08419   0.38908   0.47800   1.000
    O1874   O    0.88773   0.41801   0.47814   1.000
    O1875   O    0.89853   0.42899   0.47817   1.000
    O1876   O    0.39779   0.06921   0.47834   1.000
    O1877   O    0.38685   0.08011   0.47836   1.000
    O1878   O    0.41693   0.10962   0.47876   1.000
    O1879   O    0.42791   0.09876   0.47879   1.000
    O1880   O    0.89943   0.57113   0.47903   1.000
    O1881   O    0.88848   0.58201   0.47914   1.000
    O1882   O    0.11220   0.58179   0.47923   1.000
    O1883   O    0.10128   0.57093   0.47926   1.000
    O1884   O    0.92848   0.60167   0.47928   1.000
    O1885   O    0.91756   0.61258   0.47942   1.000
    O1886   O    0.57110   0.90095   0.47943   1.000
    O1887   O    0.58218   0.89020   0.47947   1.000
    O1888   O    0.56880   0.10044   0.47946   1.000
    O1889   O    0.57942   0.11160   0.47957   1.000
    O1890   O    0.08242   0.61200   0.47945   1.000
    O1891   O    0.07155   0.60108   0.47946   1.000
    O1892   O    0.59966   0.07173   0.47963   1.000
    O1893   O    0.61028   0.08289   0.47974   1.000
    O1894   O    0.60075   0.93092   0.47986   1.000
    O1895   O    0.61184   0.92017   0.47995   1.000
    O1896   O    0.11220   0.40390   0.48991   1.000
    O1897   O    0.08805   0.42779   0.49000   1.000
    O1898   O    0.90316   0.39014   0.49012   1.000
    O1899   O    0.92679   0.41442   0.49018   1.000
    O1900   O    0.41472   0.92670   0.49028   1.000
    O1901   O    0.07527   0.41505   0.49018   1.000
    O1902   O    0.09939   0.39113   0.49021   1.000
    O1903   O    0.40373   0.88974   0.49039   1.000
    O1904   O    0.39091   0.90258   0.49040   1.000
    O1905   O    0.42752   0.91387   0.49035   1.000
    O1906   O    0.89008   0.40281   0.49036   1.000
    O1907   O    0.91376   0.42703   0.49039   1.000
    O1908   O    0.41288   0.07100   0.49084   1.000
    O1909   O    0.38880   0.09498   0.49080   1.000
    O1910   O    0.40171   0.10760   0.49094   1.000
    O1911   O    0.42583   0.08367   0.49103   1.000
    O1912   O    0.91438   0.57314   0.49138   1.000
    O1913   O    0.92678   0.58627   0.49147   1.000
    O1914   O    0.11033   0.59689   0.49162   1.000
    O1915   O    0.89027   0.59706   0.49170   1.000
    O1916   O    0.08633   0.57295   0.49164   1.000
    O1917   O    0.09756   0.60986   0.49172   1.000
    O1918   O    0.07362   0.58586   0.49171   1.000
    O1919   O    0.57286   0.91581   0.49186   1.000
    O1920   O    0.57120   0.08552   0.49187   1.000
    O1921   O    0.90271   0.61022   0.49182   1.000
    O1922   O    0.59724   0.89213   0.49195   1.000
    O1923   O    0.58447   0.07321   0.49194   1.000
    O1924   O    0.59453   0.11009   0.49209   1.000
    O1925   O    0.58558   0.92863   0.49202   1.000
    O1926   O    0.60780   0.09779   0.49215   1.000
    O1927   O    0.60997   0.90497   0.49216   1.000
    O1928   O    0.11230   0.40408   0.50823   1.000
    O1929   O    0.09960   0.39114   0.50846   1.000
    O1930   O    0.08813   0.42794   0.50829   1.000
    O1931   O    0.07545   0.41504   0.50839   1.000
    O1932   O    0.90342   0.38997   0.50841   1.000
    O1933   O    0.89025   0.40252   0.50871   1.000
    O1934   O    0.92701   0.41429   0.50840   1.000
    O1935   O    0.91389   0.42678   0.50865   1.000
    O1936   O    0.41476   0.92673   0.50853   1.000
    O1937   O    0.42768   0.91403   0.50862   1.000
    O1938   O    0.39092   0.90265   0.50865   1.000
    O1939   O    0.40386   0.88993   0.50869   1.000
    O1940   O    0.38887   0.09475   0.50903   1.000
    O1941   O    0.40147   0.10763   0.50911   1.000
    O1942   O    0.41295   0.07077   0.50916   1.000
    O1943   O    0.42558   0.08369   0.50931   1.000
    O1944   O    0.91430   0.57310   0.50965   1.000
    O1945   O    0.92713   0.58583   0.50967   1.000
    O1946   O    0.08653   0.57292   0.50987   1.000
    O1947   O    0.07369   0.58568   0.50991   1.000
    O1948   O    0.11050   0.59688   0.50990   1.000
    O1949   O    0.09760   0.60970   0.50999   1.000
    O1950   O    0.89016   0.59698   0.51001   1.000
    O1951   O    0.90304   0.60978   0.51008   1.000
    O1952   O    0.57297   0.91541   0.51009   1.000
    O1953   O    0.58542   0.92852   0.51023   1.000
    O1954   O    0.57115   0.08556   0.51016   1.000
    O1955   O    0.58445   0.07317   0.51020   1.000
    O1956   O    0.59732   0.89171   0.51017   1.000
    O1957   O    0.60979   0.90482   0.51037   1.000
    O1958   O    0.59449   0.11013   0.51036   1.000
    O1959   O    0.60780   0.09773   0.51041   1.000
    O1960   O    0.11424   0.41922   0.52049   1.000
    O1961   O    0.10324   0.43004   0.52055   1.000
    O1962   O    0.92947   0.39916   0.52058   1.000
    O1963   O    0.91876   0.38809   0.52059   1.000
    O1964   O    0.07363   0.39996   0.52083   1.000
    O1965   O    0.39971   0.92871   0.52087   1.000
    O1966   O    0.08460   0.38910   0.52091   1.000
    O1967   O    0.38886   0.91778   0.52093   1.000
    O1968   O    0.42982   0.89906   0.52107   1.000
    O1969   O    0.41899   0.88811   0.52108   1.000
    O1970   O    0.89889   0.42838   0.52122   1.000
    O1971   O    0.88812   0.41737   0.52128   1.000
    O1972   O    0.38699   0.07963   0.52139   1.000
    O1973   O    0.39792   0.06872   0.52145   1.000
    O1974   O    0.41638   0.10963   0.52158   1.000
    O1975   O    0.42736   0.09877   0.52171   1.000
    O1976   O    0.89928   0.57092   0.52206   1.000
    O1977   O    0.92923   0.60071   0.52211   1.000
    O1978   O    0.10170   0.57085   0.52216   1.000
    O1979   O    0.11260   0.58173   0.52219   1.000
    O1980   O    0.07169   0.60068   0.52229   1.000
    O1981   O    0.88829   0.58176   0.52223   1.000
    O1982   O    0.57125   0.90007   0.52233   1.000
    O1983   O    0.08254   0.61162   0.52236   1.000
    O1984   O    0.58230   0.88930   0.52236   1.000
    O1985   O    0.91830   0.61162   0.52233   1.000
    O1986   O    0.56864   0.10054   0.52251   1.000
    O1987   O    0.59963   0.07157   0.52261   1.000
    O1988   O    0.60035   0.93062   0.52268   1.000
    O1989   O    0.57925   0.11169   0.52261   1.000
    O1990   O    0.61026   0.08271   0.52271   1.000
    O1991   O    0.61142   0.91985   0.52277   1.000
    O1992   O    0.98008   0.39889   0.56901   1.000
    O1993   O    0.99228   0.41408   0.57122   1.000
    O1994   O    0.02324   0.39951   0.56921   1.000
    O1995   O    0.01063   0.41434   0.57128   1.000
    O1996   O    0.89982   0.47752   0.57059   1.000
    O1997   O    0.91481   0.48991   0.57253   1.000
    O1998   O    0.89957   0.52051   0.57067   1.000
    O1999   O    0.91471   0.50819   0.57259   1.000
    O2000   O    0.97924   0.59967   0.57077   1.000
    O2001   O    0.99155   0.58453   0.57269   1.000
    O2002   O    0.02204   0.59972   0.57094   1.000
    O2003   O    0.00979   0.58455   0.57276   1.000
    O2004   O    0.10252   0.47808   0.57094   1.000
    O2005   O    0.08729   0.49032   0.57290   1.000
    O2006   O    0.39962   0.97781   0.57080   1.000
    O2007   O    0.41441   0.99018   0.57341   1.000
    O2008   O    0.10202   0.52099   0.57108   1.000
    O2009   O    0.08706   0.50856   0.57295   1.000
    O2010   O    0.47873   0.89906   0.57107   1.000
    O2011   O    0.49097   0.91421   0.57314   1.000
    O2012   O    0.52172   0.89945   0.57112   1.000
    O2013   O    0.50923   0.91440   0.57315   1.000
    O2014   O    0.59925   0.97991   0.57176   1.000
    O2015   O    0.58415   0.99218   0.57373   1.000
    O2016   O    0.51876   0.10018   0.57178   1.000
    O2017   O    0.50669   0.08509   0.57425   1.000
    O2018   O    0.39865   0.02058   0.57189   1.000
    O2019   O    0.41394   0.00838   0.57389   1.000
    O2020   O    0.59940   0.02268   0.57200   1.000
    O2021   O    0.58420   0.01039   0.57388   1.000
    O2022   O    0.47583   0.09989   0.57226   1.000
    O2023   O    0.48846   0.08500   0.57448   1.000
    O2024   O    0.98022   0.38782   0.57976   1.000
    O2025   O    0.02329   0.38849   0.58002   1.000
    O2026   O    0.38853   0.97758   0.58147   1.000
    O2027   O    0.88904   0.47746   0.58157   1.000
    O2028   O    0.88874   0.52044   0.58161   1.000
    O2029   O    0.97926   0.61046   0.58174   1.000
    O2030   O    0.11337   0.47796   0.58189   1.000
    O2031   O    0.02198   0.61049   0.58192   1.000
    O2032   O    0.47879   0.88807   0.58191   1.000
    O2033   O    0.52180   0.88845   0.58194   1.000
    O2034   O    0.11289   0.52093   0.58202   1.000
    O2035   O    0.51860   0.11128   0.58244   1.000
    O2036   O    0.61013   0.97989   0.58270   1.000
    O2037   O    0.38762   0.02038   0.58263   1.000
    O2038   O    0.61032   0.02260   0.58291   1.000
    O2039   O    0.47559   0.11094   0.58296   1.000
    O2040   O    0.99210   0.42677   0.58413   1.000
    O2041   O    0.01039   0.42684   0.58435   1.000
    O2042   O    0.92762   0.48985   0.58528   1.000
    O2043   O    0.92758   0.50813   0.58536   1.000
    O2044   O    0.99156   0.57158   0.58540   1.000
    O2045   O    0.00982   0.57155   0.58542   1.000
    O2046   O    0.07433   0.49014   0.58550   1.000
    O2047   O    0.07431   0.50838   0.58572   1.000
    O2048   O    0.49083   0.92694   0.58593   1.000
    O2049   O    0.50907   0.92704   0.58606   1.000
    O2050   O    0.57138   0.99202   0.58648   1.000
    O2051   O    0.57126   0.01033   0.58653   1.000
    O2052   O    0.42677   0.99008   0.58665   1.000
    O2053   O    0.42668   0.00834   0.58677   1.000
    O2054   O    0.48874   0.07235   0.58745   1.000
    O2055   O    0.50699   0.07278   0.58749   1.000
    O2056   O    0.99250   0.38973   0.59490   1.000
    O2057   O    0.01077   0.39004   0.59500   1.000
    O2058   O    0.39005   0.98961   0.59695   1.000
    O2059   O    0.89106   0.48977   0.59668   1.000
    O2060   O    0.89093   0.50804   0.59670   1.000
    O2061   O    0.99153   0.60827   0.59686   1.000
    O2062   O    0.49117   0.89002   0.59699   1.000
    O2063   O    0.50944   0.89019   0.59700   1.000
    O2064   O    0.00970   0.60828   0.59693   1.000
    O2065   O    0.11115   0.49013   0.59703   1.000
    O2066   O    0.11094   0.50842   0.59706   1.000
    O2067   O    0.50636   0.10946   0.59775   1.000
    O2068   O    0.38965   0.00783   0.59749   1.000
    O2069   O    0.60812   0.99211   0.59780   1.000
    O2070   O    0.48805   0.10933   0.59801   1.000
    O2071   O    0.60822   0.01026   0.59791   1.000
    O2072   O    0.97965   0.42844   0.59910   1.000
    O2073   O    0.02262   0.42867   0.59963   1.000
    O2074   O    0.92975   0.47734   0.60029   1.000
    O2075   O    0.07224   0.47765   0.60042   1.000
    O2076   O    0.97924   0.56944   0.60044   1.000
    O2077   O    0.92967   0.52039   0.60048   1.000
    O2078   O    0.02212   0.56937   0.60053   1.000
    O2079   O    0.07218   0.52059   0.60089   1.000
    O2080   O    0.47848   0.92872   0.60095   1.000
    O2081   O    0.52141   0.92899   0.60120   1.000
    O2082   O    0.56950   0.97951   0.60144   1.000
    O2083   O    0.56923   0.02259   0.60157   1.000
    O2084   O    0.42859   0.97746   0.60164   1.000
    O2085   O    0.42836   0.02044   0.60200   1.000
    O2086   O    0.47651   0.07035   0.60257   1.000
    O2087   O    0.51953   0.07134   0.60259   1.000
    O2088   O    0.99227   0.40239   0.60777   1.000
    O2089   O    0.01049   0.40252   0.60805   1.000
    O2090   O    0.90390   0.48966   0.60945   1.000
    O2091   O    0.90385   0.50798   0.60950   1.000
    O2092   O    0.99152   0.59533   0.60955   1.000
    O2093   O    0.00971   0.59530   0.60959   1.000
    O2094   O    0.49114   0.90276   0.60980   1.000
    O2095   O    0.50939   0.90285   0.60991   1.000
    O2096   O    0.09814   0.48997   0.60969   1.000
    O2097   O    0.09813   0.50827   0.60990   1.000
    O2098   O    0.40245   0.98938   0.61022   1.000
    O2099   O    0.40241   0.00767   0.61039   1.000
    O2100   O    0.59538   0.99197   0.61052   1.000
    O2101   O    0.59530   0.01022   0.61053   1.000
    O2102   O    0.48840   0.09663   0.61104   1.000
    O2103   O    0.50675   0.09709   0.61105   1.000
    O2104   O    0.97974   0.41734   0.60983   1.000
    O2105   O    0.02264   0.41763   0.61041   1.000
    O2106   O    0.91899   0.47724   0.61129   1.000
    O2107   O    0.08303   0.47756   0.61144   1.000
    O2108   O    0.97924   0.58024   0.61140   1.000
    O2109   O    0.91889   0.52032   0.61147   1.000
    O2110   O    0.02204   0.58016   0.61150   1.000
    O2111   O    0.47865   0.91774   0.61179   1.000
    O2112   O    0.08300   0.52056   0.61190   1.000
    O2113   O    0.52159   0.91800   0.61204   1.000
    O2114   O    0.58040   0.97951   0.61235   1.000
    O2115   O    0.41754   0.97711   0.61235   1.000
    O2116   O    0.58017   0.02253   0.61245   1.000
    O2117   O    0.41736   0.02012   0.61276   1.000
    O2118   O    0.51947   0.08237   0.61332   1.000
    O2119   O    0.47634   0.08134   0.61333   1.000
    O2120   O    0.65805   0.70572   0.61976   1.000
    O2121   O    0.15918   0.20802   0.62280   1.000
    O2122   O    0.78958   0.84090   0.62322   1.000
    O2123   O    0.71160   0.65273   0.62479   1.000
    O2124   O    0.70954   0.34209   0.62481   1.000
    O2125   O    0.21161   0.84031   0.62484   1.000
    O2126   O    0.28947   0.66265   0.62532   1.000
    O2127   O    0.34502   0.28940   0.62577   1.000
    O2128   O    0.65932   0.28714   0.62576   1.000
    O2129   O    0.84200   0.78784   0.62592   1.000
    O2130   O    0.15831   0.78854   0.62594   1.000
    O2131   O    0.21042   0.15277   0.62708   1.000
    O2132   O    0.29009   0.34305   0.62784   1.000
    O2133   O    0.34401   0.71396   0.62979   1.000
    O2134   O    0.78467   0.16392   0.62983   1.000
    O2135   O    0.64620   0.71007   0.62866   1.000
    O2136   O    0.65544   0.69816   0.63244   1.000
    O2137   O    0.83530   0.21773   0.63191   1.000
    O2138   O    0.14697   0.21235   0.63129   1.000
    O2139   O    0.15596   0.20024   0.63516   1.000
    O2140   O    0.78630   0.85350   0.63148   1.000
    O2141   O    0.79812   0.84410   0.63511   1.000
    O2142   O    0.71231   0.35473   0.63319   1.000
    O2143   O    0.70092   0.34486   0.63669   1.000
    O2144   O    0.21513   0.85267   0.63338   1.000
    O2145   O    0.20288   0.84375   0.63647   1.000
    O2146   O    0.28618   0.64963   0.63308   1.000
    O2147   O    0.29768   0.65909   0.63737   1.000
    O2148   O    0.63577   0.71140   0.63978   1.000
    O2149   O    0.71555   0.64233   0.63547   1.000
    O2150   O    0.70309   0.65136   0.63713   1.000
    O2151   O    0.64713   0.28354   0.63447   1.000
    O2152   O    0.65607   0.29583   0.63751   1.000
    O2153   O    0.35736   0.28634   0.63471   1.000
    O2154   O    0.34760   0.29812   0.63767   1.000
    O2155   O    0.14627   0.78520   0.63493   1.000
    O2156   O    0.15540   0.79741   0.63763   1.000
    O2157   O    0.85391   0.78445   0.63517   1.000
    O2158   O    0.84480   0.79671   0.63762   1.000
    O2159   O    0.21296   0.14094   0.63673   1.000
    O2160   O    0.20139   0.15108   0.63892   1.000
    O2161   O    0.13601   0.21342   0.64194   1.000
    O2162   O    0.28708   0.35492   0.63724   1.000
    O2163   O    0.29925   0.34545   0.63952   1.000
    O2164   O    0.78618   0.86482   0.64177   1.000
    O2165   O    0.78353   0.14969   0.63590   1.000
    O2166   O    0.79450   0.15968   0.64034   1.000
    O2167   O    0.28591   0.63800   0.64311   1.000
    O2168   O    0.35735   0.71469   0.63760   1.000
    O2169   O    0.34656   0.70400   0.64077   1.000
    O2170   O    0.85022   0.21775   0.63606   1.000
    O2171   O    0.84042   0.20669   0.64074   1.000
    O2172   O    0.71199   0.36589   0.64365   1.000
    O2173   O    0.21532   0.86387   0.64381   1.000
    O2174   O    0.86400   0.21442   0.64200   1.000
    O2175   O    0.78554   0.13684   0.64411   1.000
    O2176   O    0.63603   0.28329   0.64500   1.000
    O2177   O    0.36820   0.28651   0.64557   1.000
    O2178   O    0.13543   0.78517   0.64572   1.000
    O2179   O    0.86463   0.78443   0.64615   1.000
    O2180   O    0.66692   0.68225   0.63930   1.000
    O2181   O    0.65078   0.69231   0.64560   1.000
    O2182   O    0.71650   0.63340   0.64794   1.000
    O2183   O    0.68639   0.66319   0.64127   1.000
    O2184   O    0.36905   0.71232   0.64725   1.000
    O2185   O    0.21234   0.13070   0.64813   1.000
    O2186   O    0.28729   0.36535   0.64843   1.000
    O2187   O    0.81452   0.83273   0.64117   1.000
    O2188   O    0.83362   0.81337   0.64221   1.000
    O2189   O    0.80512   0.84956   0.64738   1.000
    O2190   O    0.16668   0.18368   0.64167   1.000
    O2191   O    0.15064   0.19403   0.64790   1.000
    O2192   O    0.18621   0.83294   0.64203   1.000
    O2193   O    0.16680   0.81397   0.64256   1.000
    O2194   O    0.18520   0.16362   0.64319   1.000
    O2195   O    0.16817   0.16427   0.64894   1.000
    O2196   O    0.17611   0.17174   0.65610   1.000
    O2197   O    0.68512   0.33296   0.64237   1.000
    O2198   O    0.66675   0.31293   0.64266   1.000
    O2199   O    0.19568   0.84932   0.64854   1.000
    O2200   O    0.69373   0.34983   0.64904   1.000
    O2201   O    0.69644   0.64800   0.65033   1.000
    O2202   O    0.33580   0.31449   0.64333   1.000
    O2203   O    0.31617   0.33373   0.64411   1.000
    O2204   O    0.33296   0.33416   0.64980   1.000
    O2205   O    0.32570   0.32629   0.65724   1.000
    O2206   O    0.84976   0.80409   0.64987   1.000
    O2207   O    0.65055   0.30298   0.64965   1.000
    O2208   O    0.15029   0.80473   0.64985   1.000
    O2209   O    0.35239   0.30532   0.65007   1.000
    O2210   O    0.31324   0.67063   0.64485   1.000
    O2211   O    0.30430   0.65340   0.64978   1.000
    O2212   O    0.19382   0.14711   0.65140   1.000
    O2213   O    0.30672   0.35001   0.65187   1.000
    O2214   O    0.82883   0.19065   0.64724   1.000
    O2215   O    0.84806   0.19675   0.64934   1.000
    O2216   O    0.33327   0.68880   0.64615   1.000
    O2217   O    0.33185   0.67178   0.65110   1.000
    O2218   O    0.80986   0.17165   0.64738   1.000
    O2219   O    0.80306   0.15312   0.65103   1.000
    O2220   O    0.35158   0.69525   0.65212   1.000
    O2221   O    0.87595   0.20793   0.64945   1.000
    O2222   O    0.86249   0.20133   0.65022   1.000
    O2223   O    0.63878   0.70027   0.65024   1.000
    O2224   O    0.62726   0.70965   0.65255   1.000
    O2225   O    0.82848   0.17322   0.64997   1.000
    O2226   O    0.79795   0.86222   0.65159   1.000
    O2227   O    0.78924   0.87432   0.65354   1.000
    O2228   O    0.13847   0.20194   0.65221   1.000
    O2229   O    0.12685   0.21124   0.65425   1.000
    O2230   O    0.79772   0.13917   0.65350   1.000
    O2231   O    0.79058   0.12594   0.65395   1.000
    O2232   O    0.29724   0.64053   0.65342   1.000
    O2233   O    0.28869   0.62829   0.65487   1.000
    O2234   O    0.20314   0.86163   0.65316   1.000
    O2235   O    0.21228   0.87331   0.65566   1.000
    O2236   O    0.70037   0.36267   0.65347   1.000
    O2237   O    0.70860   0.37511   0.65559   1.000
    O2238   O    0.64458   0.68468   0.66300   1.000
    O2239   O    0.63831   0.29545   0.65437   1.000
    O2240   O    0.62664   0.28631   0.65687   1.000
    O2241   O    0.85857   0.18373   0.66088   1.000
    O2242   O    0.36494   0.29837   0.65503   1.000
    O2243   O    0.37698   0.28992   0.65785   1.000
    O2244   O    0.13805   0.79740   0.65493   1.000
    O2245   O    0.12640   0.78832   0.65784   1.000
    O2246   O    0.81440   0.85727   0.66363   1.000
    O2247   O    0.86190   0.79674   0.65521   1.000
    O2248   O    0.87353   0.78764   0.65841   1.000
    O2249   O    0.83135   0.85103   0.66383   1.000
    O2250   O    0.14358   0.18582   0.66468   1.000
    O2251   O    0.36532   0.70019   0.65619   1.000
    O2252   O    0.37855   0.70697   0.65822   1.000
    O2253   O    0.64816   0.32973   0.66511   1.000
    O2254   O    0.18612   0.85659   0.66438   1.000
    O2255   O    0.14921   0.83115   0.66550   1.000
    O2256   O    0.68400   0.35628   0.66522   1.000
    O2257   O    0.67006   0.64815   0.66656   1.000
    O2258   O    0.31260   0.64600   0.66643   1.000
    O2259   O    0.64277   0.31250   0.66572   1.000
    O2260   O    0.81426   0.14471   0.66530   1.000
    O2261   O    0.20039   0.13468   0.65717   1.000
    O2262   O    0.20858   0.12256   0.66071   1.000
    O2263   O    0.29955   0.36216   0.65743   1.000
    O2264   O    0.29076   0.37386   0.66080   1.000
    O2265   O    0.70453   0.63702   0.65706   1.000
    O2266   O    0.71422   0.62623   0.66139   1.000
    O2267   O    0.14333   0.81438   0.66626   1.000
    O2268   O    0.85608   0.81390   0.66601   1.000
    O2269   O    0.35899   0.31471   0.66637   1.000
    O2270   O    0.68735   0.64266   0.66766   1.000
    O2271   O    0.35861   0.68393   0.66747   1.000
    O2272   O    0.18382   0.14130   0.66805   1.000
    O2273   O    0.31637   0.35666   0.66850   1.000
    O2274   O    0.67777   0.65649   0.67298   1.000
    O2275   O    0.84706   0.17481   0.67099   1.000
    O2276   O    0.86002   0.16415   0.67942   1.000
    O2277   O    0.82339   0.84399   0.67145   1.000
    O2278   O    0.65577   0.32238   0.67285   1.000
    O2279   O    0.15690   0.82389   0.67323   1.000
    O2280   O    0.83354   0.85789   0.68308   1.000
    O2281   O    0.64449   0.66708   0.68378   1.000
    O2282   O    0.34457   0.67622   0.67542   1.000
    O2283   O    0.16705   0.85717   0.68373   1.000
    O2284   O    0.83461   0.14411   0.68349   1.000
    O2285   O    0.14245   0.16759   0.68496   1.000
    O2286   O    0.66443   0.35592   0.68432   1.000
    O2287   O    0.64169   0.33228   0.68448   1.000
    O2288   O    0.85607   0.83401   0.68443   1.000
    O2289   O    0.14372   0.83415   0.68525   1.000
    O2290   O    0.35908   0.33330   0.68601   1.000
    O2291   O    0.35718   0.66396   0.68604   1.000
    O2292   O    0.33106   0.64424   0.68620   1.000
    O2293   O    0.66759   0.64389   0.68646   1.000
    O2294   O    0.16418   0.14312   0.68684   1.000
    O2295   O    0.33597   0.35625   0.68754   1.000
    O2296   O    0.85211   0.14990   0.69117   1.000
    O2297   O    0.86548   0.15422   0.69686   1.000
    O2298   O    0.84643   0.13914   0.70017   1.000
    O2299   O    0.84973   0.85097   0.69289   1.000
    O2300   O    0.84492   0.86385   0.69925   1.000
    O2301   O    0.86199   0.84623   0.70046   1.000
    O2302   O    0.64804   0.34909   0.69353   1.000
    O2303   O    0.63559   0.34391   0.70043   1.000
    O2304   O    0.15109   0.85073   0.69393   1.000
    O2305   O    0.15646   0.86319   0.70062   1.000
    O2306   O    0.65237   0.36176   0.70055   1.000
    O2307   O    0.65089   0.65146   0.69462   1.000
    O2308   O    0.63804   0.65666   0.70068   1.000
    O2309   O    0.13903   0.84601   0.70174   1.000
    O2310   O    0.14800   0.15141   0.69536   1.000
    O2311   O    0.13568   0.15726   0.70191   1.000
    O2312   O    0.34841   0.64841   0.69519   1.000
    O2313   O    0.36155   0.65148   0.70208   1.000
    O2314   O    0.34192   0.63684   0.70246   1.000
    O2315   O    0.65546   0.63949   0.70274   1.000
    O2316   O    0.35254   0.34903   0.69627   1.000
    O2317   O    0.36510   0.34379   0.70295   1.000
    O2318   O    0.15218   0.13912   0.70321   1.000
    O2319   O    0.34767   0.36103   0.70410   1.000
    O2320   O    0.87825   0.15662   0.70433   1.000
    O2321   O    0.86832   0.14606   0.70975   1.000
    O2322   O    0.84222   0.87624   0.70717   1.000
    O2323   O    0.85430   0.86736   0.71107   1.000
    O2324   O    0.62359   0.34089   0.70884   1.000
    O2325   O    0.63195   0.35348   0.71205   1.000
    O2326   O    0.62553   0.65968   0.70839   1.000
    O2327   O    0.63438   0.64778   0.71290   1.000
    O2328   O    0.65442   0.37394   0.70912   1.000
    O2329   O    0.64242   0.36465   0.71215   1.000
    O2330   O    0.87381   0.84383   0.70948   1.000
    O2331   O    0.86499   0.85636   0.71185   1.000
    O2332   O    0.15972   0.87519   0.70898   1.000
    O2333   O    0.14762   0.86643   0.71293   1.000
    O2334   O    0.84307   0.12887   0.71064   1.000
    O2335   O    0.85640   0.13663   0.71185   1.000
    O2336   O    0.12370   0.16097   0.71013   1.000
    O2337   O    0.13197   0.14845   0.71421   1.000
    O2338   O    0.37387   0.65253   0.71058   1.000
    O2339   O    0.36340   0.64167   0.71397   1.000
    O2340   O    0.12758   0.84347   0.71109   1.000
    O2341   O    0.13672   0.85569   0.71364   1.000
    O2342   O    0.33766   0.62546   0.71131   1.000
    O2343   O    0.35112   0.63250   0.71421   1.000
    O2344   O    0.37719   0.34068   0.71131   1.000
    O2345   O    0.36824   0.35264   0.71527   1.000
    O2346   O    0.65769   0.62799   0.71215   1.000
    O2347   O    0.64528   0.63704   0.71418   1.000
    O2348   O    0.15422   0.12749   0.71242   1.000
    O2349   O    0.14232   0.13712   0.71501   1.000
    O2350   O    0.34499   0.37245   0.71344   1.000
    O2351   O    0.35734   0.36342   0.71599   1.000
    O2352   O    0.86324   0.64330   0.78388   1.000
    O2353   O    0.85293   0.63202   0.78492   1.000
    O2354   O    0.13602   0.64476   0.78494   1.000
    O2355   O    0.14708   0.63411   0.78513   1.000
    O2356   O    0.86608   0.35774   0.78607   1.000
    O2357   O    0.85518   0.36854   0.78629   1.000
    O2358   O    0.13754   0.35740   0.78649   1.000
    O2359   O    0.14890   0.36766   0.78688   1.000
    O2360   O    0.63425   0.85342   0.78624   1.000
    O2361   O    0.64333   0.86572   0.78746   1.000
    O2362   O    0.35499   0.13602   0.78736   1.000
    O2363   O    0.36559   0.14708   0.78743   1.000
    O2364   O    0.35366   0.86709   0.78757   1.000
    O2365   O    0.36512   0.85686   0.78786   1.000
    O2366   O    0.64305   0.13423   0.78722   1.000
    O2367   O    0.63123   0.14391   0.78865   1.000
    O2368   O    0.87179   0.65600   0.78606   1.000
    O2369   O    0.62736   0.83969   0.78803   1.000
    O2370   O    0.12673   0.65681   0.78800   1.000
    O2371   O    0.65645   0.12650   0.78895   1.000
    O2372   O    0.15930   0.62530   0.78862   1.000
    O2373   O    0.87506   0.34539   0.78906   1.000
    O2374   O    0.12791   0.34566   0.78936   1.000
    O2375   O    0.86061   0.65304   0.79567   1.000
    O2376   O    0.84142   0.62267   0.78925   1.000
    O2377   O    0.84286   0.37727   0.78975   1.000
    O2378   O    0.34080   0.87521   0.79036   1.000
    O2379   O    0.34295   0.12681   0.79052   1.000
    O2380   O    0.16145   0.37593   0.79055   1.000
    O2381   O    0.37425   0.15942   0.79074   1.000
    O2382   O    0.13853   0.65419   0.79700   1.000
    O2383   O    0.37467   0.84509   0.79126   1.000
    O2384   O    0.63886   0.84324   0.79698   1.000
    O2385   O    0.15619   0.63713   0.79728   1.000
    O2386   O    0.84415   0.63498   0.79730   1.000
    O2387   O    0.86310   0.34786   0.79775   1.000
    O2388   O    0.65405   0.87605   0.79169   1.000
    O2389   O    0.84567   0.36514   0.79808   1.000
    O2390   O    0.65339   0.13781   0.79834   1.000
    O2391   O    0.13964   0.34775   0.79851   1.000
    O2392   O    0.15781   0.36416   0.79912   1.000
    O2393   O    0.34385   0.86322   0.79889   1.000
    O2394   O    0.34548   0.13869   0.79934   1.000
    O2395   O    0.36245   0.15636   0.79943   1.000
    O2396   O    0.62162   0.15518   0.79319   1.000
    O2397   O    0.65338   0.86289   0.79898   1.000
    O2398   O    0.36218   0.84687   0.79939   1.000
    O2399   O    0.63444   0.15324   0.80057   1.000
    O2400   O    0.84895   0.64781   0.80373   1.000
    O2401   O    0.85525   0.66467   0.81227   1.000
    O2402   O    0.65051   0.84916   0.80467   1.000
    O2403   O    0.64626   0.83112   0.81209   1.000
    O2404   O    0.15087   0.64939   0.80439   1.000
    O2405   O    0.14376   0.66566   0.81375   1.000
    O2406   O    0.83352   0.64043   0.81414   1.000
    O2407   O    0.16715   0.64280   0.81395   1.000
    O2408   O    0.85063   0.35254   0.80493   1.000
    O2409   O    0.85745   0.33594   0.81404   1.000
    O2410   O    0.83423   0.35908   0.81429   1.000
    O2411   O    0.66569   0.85724   0.81501   1.000
    O2412   O    0.64795   0.14941   0.80634   1.000
    O2413   O    0.66569   0.14446   0.81415   1.000
    O2414   O    0.34919   0.85090   0.80600   1.000
    O2415   O    0.33224   0.85636   0.81472   1.000
    O2416   O    0.15203   0.35201   0.80609   1.000
    O2417   O    0.14429   0.33609   0.81530   1.000
    O2418   O    0.35659   0.83475   0.81557   1.000
    O2419   O    0.16845   0.35804   0.81597   1.000
    O2420   O    0.35019   0.15111   0.80657   1.000
    O2421   O    0.33390   0.14404   0.81595   1.000
    O2422   O    0.35655   0.16750   0.81595   1.000
    O2423   O    0.64023   0.16498   0.81634   1.000
    O2424   O    0.64591   0.81193   0.83068   1.000
    O2425   O    0.85568   0.68434   0.83103   1.000
    O2426   O    0.68565   0.14560   0.83276   1.000
    O2427   O    0.15736   0.67564   0.82609   1.000
    O2428   O    0.14408   0.68482   0.83342   1.000
    O2429   O    0.14990   0.66803   0.83359   1.000
    O2430   O    0.84362   0.32580   0.82602   1.000
    O2431   O    0.85677   0.31623   0.83319   1.000
    O2432   O    0.85111   0.33326   0.83365   1.000
    O2433   O    0.18653   0.64240   0.83288   1.000
    O2434   O    0.81482   0.35925   0.83317   1.000
    O2435   O    0.31263   0.85624   0.83320   1.000
    O2436   O    0.81535   0.64031   0.83435   1.000
    O2437   O    0.67703   0.84390   0.82743   1.000
    O2438   O    0.66748   0.85025   0.83371   1.000
    O2439   O    0.68462   0.85726   0.83491   1.000
    O2440   O    0.14273   0.31643   0.83410   1.000
    O2441   O    0.34304   0.82386   0.82767   1.000
    O2442   O    0.35626   0.81526   0.83502   1.000
    O2443   O    0.34997   0.83202   0.83504   1.000
    O2444   O    0.35666   0.18704   0.83470   1.000
    O2445   O    0.32369   0.15774   0.82810   1.000
    O2446   O    0.31459   0.14441   0.83547   1.000
    O2447   O    0.33130   0.15037   0.83572   1.000
    O2448   O    0.65382   0.17658   0.82618   1.000
    O2449   O    0.64028   0.18444   0.83517   1.000
    O2450   O    0.17011   0.35155   0.83583   1.000
    O2451   O    0.18714   0.35663   0.83596   1.000
    O2452   O    0.82371   0.67167   0.84320   1.000
    O2453   O    0.17597   0.32625   0.84513   1.000
    O2454   O    0.62666   0.78771   0.83824   1.000
    O2455   O    0.87351   0.70987   0.83804   1.000
    O2456   O    0.21200   0.62434   0.84019   1.000
    O2457   O    0.28752   0.87479   0.84060   1.000
    O2458   O    0.12363   0.29162   0.84094   1.000
    O2459   O    0.79005   0.37775   0.84133   1.000
    O2460   O    0.37457   0.21254   0.84193   1.000
    O2461   O    0.87304   0.29000   0.84217   1.000
    O2462   O    0.12748   0.71060   0.84296   1.000
    O2463   O    0.71033   0.12752   0.84298   1.000
    O2464   O    0.37305   0.78962   0.84453   1.000
    O2465   O    0.70992   0.87418   0.84480   1.000
    O2466   O    0.86188   0.70115   0.84169   1.000
    O2467   O    0.84992   0.69398   0.84757   1.000
    O2468   O    0.28894   0.12770   0.84487   1.000
    O2469   O    0.79155   0.62214   0.84475   1.000
    O2470   O    0.63813   0.79651   0.84221   1.000
    O2471   O    0.64970   0.80397   0.84852   1.000
    O2472   O    0.21307   0.37223   0.84599   1.000
    O2473   O    0.20340   0.63620   0.84352   1.000
    O2474   O    0.19646   0.64849   0.84898   1.000
    O2475   O    0.62100   0.20720   0.84588   1.000
    O2476   O    0.86538   0.71328   0.85070   1.000
    O2477   O    0.29605   0.86287   0.84398   1.000
    O2478   O    0.30303   0.85060   0.84956   1.000
    O2479   O    0.70196   0.13990   0.84480   1.000
    O2480   O    0.69523   0.15286   0.84878   1.000
    O2481   O    0.79831   0.36552   0.84422   1.000
    O2482   O    0.80501   0.35290   0.84932   1.000
    O2483   O    0.86141   0.29920   0.84474   1.000
    O2484   O    0.84916   0.30675   0.84951   1.000
    O2485   O    0.63335   0.78555   0.85205   1.000
    O2486   O    0.13580   0.29961   0.84450   1.000
    O2487   O    0.14832   0.30595   0.85017   1.000
    O2488   O    0.13921   0.70143   0.84539   1.000
    O2489   O    0.15155   0.69389   0.85004   1.000
    O2490   O    0.83211   0.66473   0.85046   1.000
    O2491   O    0.36269   0.20400   0.84523   1.000
    O2492   O    0.35040   0.19707   0.85069   1.000
    O2493   O    0.21560   0.63287   0.85253   1.000
    O2494   O    0.79975   0.63457   0.84676   1.000
    O2495   O    0.80636   0.64753   0.85101   1.000
    O2496   O    0.63433   0.20037   0.84704   1.000
    O2497   O    0.64832   0.19537   0.85014   1.000
    O2498   O    0.66790   0.17168   0.84958   1.000
    O2499   O    0.36117   0.79854   0.84688   1.000
    O2500   O    0.34867   0.80583   0.85143   1.000
    O2501   O    0.28413   0.86644   0.85318   1.000
    O2502   O    0.70099   0.86233   0.84709   1.000
    O2503   O    0.69361   0.84989   0.85163   1.000
    O2504   O    0.13191   0.28743   0.85339   1.000
    O2505   O    0.29794   0.13949   0.84731   1.000
    O2506   O    0.30527   0.15191   0.85194   1.000
    O2507   O    0.78640   0.36896   0.85350   1.000
    O2508   O    0.20362   0.36079   0.84820   1.000
    O2509   O    0.19565   0.34870   0.85268   1.000
    O2510   O    0.86376   0.28698   0.85413   1.000
    O2511   O    0.36590   0.21628   0.85412   1.000
    O2512   O    0.71384   0.13720   0.85453   1.000
    O2513   O    0.13675   0.71337   0.85502   1.000
    O2514   O    0.36371   0.78649   0.85642   1.000
    O2515   O    0.78840   0.63125   0.85671   1.000
    O2516   O    0.71276   0.86493   0.85691   1.000
    O2517   O    0.28592   0.13695   0.85684   1.000
    O2518   O    0.63105   0.21222   0.85643   1.000
    O2519   O    0.21542   0.36289   0.85810   1.000
    O2520   O    0.68678   0.17021   0.85443   1.000
    O2521   O    0.66689   0.18865   0.85477   1.000
    O2522   O    0.83422   0.68450   0.85580   1.000
    O2523   O    0.84576   0.70132   0.86011   1.000
    O2524   O    0.70259   0.15842   0.86079   1.000
    O2525   O    0.65398   0.20385   0.86131   1.000
    O2526   O    0.18742   0.66475   0.85640   1.000
    O2527   O    0.20400   0.65302   0.86128   1.000
    O2528   O    0.81384   0.33633   0.85643   1.000
    O2529   O    0.79758   0.34828   0.86165   1.000
    O2530   O    0.83273   0.31654   0.85645   1.000
    O2531   O    0.84372   0.29956   0.86170   1.000
    O2532   O    0.66485   0.81383   0.85714   1.000
    O2533   O    0.65234   0.79795   0.86215   1.000
    O2534   O    0.31231   0.83450   0.85733   1.000
    O2535   O    0.29577   0.84633   0.86211   1.000
    O2536   O    0.16817   0.68419   0.85682   1.000
    O2537   O    0.15692   0.70081   0.86241   1.000
    O2538   O    0.16489   0.31415   0.85803   1.000
    O2539   O    0.15246   0.29806   0.86245   1.000
    O2540   O    0.81540   0.66461   0.85720   1.000
    O2541   O    0.79935   0.65250   0.86346   1.000
    O2542   O    0.33413   0.18802   0.85813   1.000
    O2543   O    0.34574   0.20472   0.86287   1.000
    O2544   O    0.33181   0.81522   0.85802   1.000
    O2545   O    0.34328   0.79864   0.86364   1.000
    O2546   O    0.68406   0.83319   0.85816   1.000
    O2547   O    0.70048   0.84458   0.86409   1.000
    O2548   O    0.31477   0.16864   0.85863   1.000
    O2549   O    0.29815   0.15727   0.86419   1.000
    O2550   O    0.85529   0.71339   0.86222   1.000
    O2551   O    0.18516   0.33250   0.85911   1.000
    O2552   O    0.20217   0.34311   0.86520   1.000
    O2553   O    0.21597   0.64338   0.86366   1.000
    O2554   O    0.64224   0.78644   0.86453   1.000
    O2555   O    0.28394   0.85609   0.86452   1.000
    O2556   O    0.14232   0.28647   0.86462   1.000
    O2557   O    0.78593   0.35818   0.86440   1.000
    O2558   O    0.35530   0.21674   0.86515   1.000
    O2559   O    0.85271   0.28722   0.86471   1.000
    O2560   O    0.71421   0.14880   0.86451   1.000
    O2561   O    0.14782   0.71297   0.86564   1.000
    O2562   O    0.64332   0.21440   0.86537   1.000
    O2563   O    0.35254   0.78656   0.86688   1.000
    O2564   O    0.78812   0.64244   0.86714   1.000
    O2565   O    0.28606   0.14805   0.86736   1.000
    O2566   O    0.71244   0.85384   0.86752   1.000
    O2567   O    0.84374   0.71022   0.87200   1.000
    O2568   O    0.21452   0.35186   0.86871   1.000
    O2569   O    0.71140   0.16181   0.87239   1.000
    O2570   O    0.21304   0.65534   0.87304   1.000
    O2571   O    0.65708   0.21347   0.87242   1.000
    O2572   O    0.78865   0.34588   0.87346   1.000
    O2573   O    0.84049   0.29078   0.87342   1.000
    O2574   O    0.28700   0.84425   0.87408   1.000
    O2575   O    0.15443   0.28880   0.87406   1.000
    O2576   O    0.65283   0.79038   0.87512   1.000
    O2577   O    0.16005   0.70930   0.87434   1.000
    O2578   O    0.34325   0.21392   0.87444   1.000
    O2579   O    0.34010   0.78986   0.87538   1.000
    O2580   O    0.79086   0.65502   0.87564   1.000
    O2581   O    0.28943   0.16039   0.87597   1.000
    O2582   O    0.70896   0.84144   0.87607   1.000
    O2583   O    0.21039   0.33969   0.87732   1.000
    O2584   O    0.92000   0.02147   0.88569   1.000
    O2585   O    0.90483   0.00922   0.88762   1.000
    O2586   O    0.91947   0.97829   0.88587   1.000
    O2587   O    0.90459   0.99090   0.88768   1.000
    O2588   O    0.97984   0.08201   0.88610   1.000
    O2589   O    0.99241   0.09682   0.88823   1.000
    O2590   O    0.02281   0.08091   0.88688   1.000
    O2591   O    0.01069   0.09632   0.88858   1.000
    O2592   O    0.52321   0.58111   0.88696   1.000
    O2593   O    0.51091   0.59618   0.88892   1.000
    O2594   O    0.48005   0.58111   0.88742   1.000
    O2595   O    0.49257   0.59615   0.88914   1.000
    O2596   O    0.08196   0.01937   0.88792   1.000
    O2597   O    0.09692   0.00676   0.89028   1.000
    O2598   O    0.97859   0.91680   0.88800   1.000
    O2599   O    0.99075   0.90150   0.89015   1.000
    O2600   O    0.08181   0.97624   0.88815   1.000
    O2601   O    0.09688   0.98844   0.89035   1.000
    O2602   O    0.02148   0.91617   0.88833   1.000
    O2603   O    0.00899   0.90122   0.89027   1.000
    O2604   O    0.58298   0.52035   0.88850   1.000
    O2605   O    0.59793   0.50788   0.89098   1.000
    O2606   O    0.52152   0.41790   0.88877   1.000
    O2607   O    0.50871   0.40324   0.89101   1.000
    O2608   O    0.47835   0.41915   0.88885   1.000
    O2609   O    0.49035   0.40378   0.89105   1.000
    O2610   O    0.58261   0.47734   0.88923   1.000
    O2611   O    0.59777   0.48960   0.89130   1.000
    O2612   O    0.41851   0.52240   0.88923   1.000
    O2613   O    0.40336   0.51031   0.89156   1.000
    O2614   O    0.41838   0.47966   0.88960   1.000
    O2615   O    0.40332   0.49211   0.89172   1.000
    O2616   O    0.93083   0.02145   0.89667   1.000
    O2617   O    0.93030   0.97825   0.89686   1.000
    O2618   O    0.97964   0.07115   0.89707   1.000
    O2619   O    0.02256   0.07007   0.89786   1.000
    O2620   O    0.52314   0.57027   0.89793   1.000
    O2621   O    0.48003   0.57029   0.89842   1.000
    O2622   O    0.07091   0.01964   0.89863   1.000
    O2623   O    0.97858   0.92775   0.89882   1.000
    O2624   O    0.07076   0.97651   0.89887   1.000
    O2625   O    0.57190   0.52057   0.89918   1.000
    O2626   O    0.02148   0.92708   0.89919   1.000
    O2627   O    0.52174   0.42891   0.89951   1.000
    O2628   O    0.47864   0.43014   0.89961   1.000
    O2629   O    0.42957   0.52225   0.89999   1.000
    O2630   O    0.57151   0.47758   0.89990   1.000
    O2631   O    0.42941   0.47951   0.90039   1.000
    O2632   O    0.89191   0.00938   0.90033   1.000
    O2633   O    0.89187   0.99115   0.90048   1.000
    O2634   O    0.99253   0.10955   0.90114   1.000
    O2635   O    0.01085   0.10933   0.90119   1.000
    O2636   O    0.49279   0.60917   0.90173   1.000
    O2637   O    0.51099   0.60887   0.90183   1.000
    O2638   O    0.99044   0.88856   0.90283   1.000
    O2639   O    0.00869   0.88843   0.90318   1.000
    O2640   O    0.10973   0.00667   0.90313   1.000
    O2641   O    0.10921   0.98841   0.90368   1.000
    O2642   O    0.50836   0.39062   0.90406   1.000
    O2643   O    0.49005   0.39117   0.90417   1.000
    O2644   O    0.61052   0.50798   0.90400   1.000
    O2645   O    0.61037   0.48964   0.90433   1.000
    O2646   O    0.39050   0.49223   0.90458   1.000
    O2647   O    0.39090   0.51052   0.90468   1.000
    O2648   O    0.92868   0.00914   0.91177   1.000
    O2649   O    0.92844   0.99080   0.91183   1.000
    O2650   O    0.99190   0.07292   0.91234   1.000
    O2651   O    0.01014   0.07244   0.91270   1.000
    O2652   O    0.51078   0.57229   0.91307   1.000
    O2653   O    0.49249   0.57228   0.91331   1.000
    O2654   O    0.07259   0.00739   0.91381   1.000
    O2655   O    0.07255   0.98907   0.91389   1.000
    O2656   O    0.99074   0.92556   0.91398   1.000
    O2657   O    0.57353   0.50839   0.91446   1.000
    O2658   O    0.00898   0.92524   0.91414   1.000
    O2659   O    0.50928   0.42749   0.91461   1.000
    O2660   O    0.49099   0.42802   0.91466   1.000
    O2661   O    0.57337   0.49013   0.91478   1.000
    O2662   O    0.42769   0.50997   0.91524   1.000
    O2663   O    0.88987   0.02178   0.91533   1.000
    O2664   O    0.42763   0.49178   0.91543   1.000
    O2665   O    0.88977   0.97888   0.91566   1.000
    O2666   O    0.98009   0.11174   0.91614   1.000
    O2667   O    0.02317   0.11119   0.91630   1.000
    O2668   O    0.48061   0.61146   0.91682   1.000
    O2669   O    0.52331   0.61076   0.91702   1.000
    O2670   O    0.97789   0.88668   0.91765   1.000
    O2671   O    0.11180   0.01918   0.91794   1.000
    O2672   O    0.02080   0.88631   0.91847   1.000
    O2673   O    0.61230   0.52060   0.91884   1.000
    O2674   O    0.11065   0.97621   0.91914   1.000
    O2675   O    0.52068   0.38849   0.91915   1.000
    O2676   O    0.47768   0.38974   0.91939   1.000
    O2677   O    0.61196   0.47740   0.91960   1.000
    O2678   O    0.38850   0.47989   0.91963   1.000
    O2679   O    0.38940   0.52291   0.91981   1.000
    O2680   O    0.91577   0.00928   0.92446   1.000
    O2681   O    0.91572   0.99101   0.92464   1.000
    O2682   O    0.99199   0.08562   0.92520   1.000
    O2683   O    0.01026   0.08541   0.92527   1.000
    O2684   O    0.49267   0.58527   0.92587   1.000
    O2685   O    0.51084   0.58495   0.92595   1.000
    O2686   O    0.08539   0.00734   0.92665   1.000
    O2687   O    0.08485   0.98908   0.92718   1.000
    O2688   O    0.99044   0.91263   0.92666   1.000
    O2689   O    0.00869   0.91247   0.92704   1.000
    O2690   O    0.50892   0.41491   0.92762   1.000
    O2691   O    0.49069   0.41548   0.92772   1.000
    O2692   O    0.58611   0.50849   0.92747   1.000
    O2693   O    0.58595   0.49016   0.92779   1.000
    O2694   O    0.41484   0.49188   0.92825   1.000
    O2695   O    0.41525   0.51016   0.92833   1.000
    O2696   O    0.90072   0.02174   0.92630   1.000
    O2697   O    0.90060   0.97881   0.92666   1.000
    O2698   O    0.97985   0.10085   0.92707   1.000
    O2699   O    0.02288   0.10031   0.92724   1.000
    O2700   O    0.48055   0.60060   0.92779   1.000
    O2701   O    0.52322   0.59988   0.92796   1.000
    O2702   O    0.97789   0.89763   0.92846   1.000
    O2703   O    0.10074   0.01949   0.92864   1.000
    O2704   O    0.02080   0.89723   0.92931   1.000
    O2705   O    0.60121   0.52082   0.92951   1.000
    O2706   O    0.52090   0.39954   0.92986   1.000
    O2707   O    0.09956   0.97653   0.92982   1.000
    O2708   O    0.47798   0.40080   0.93008   1.000
    O2709   O    0.60085   0.47764   0.93025   1.000
    O2710   O    0.39955   0.47973   0.93039   1.000
    O2711   O    0.40048   0.52274   0.93054   1.000
    O2712   O    0.88914   0.08230   0.97518   1.000
    O2713   O    0.90009   0.07143   0.97543   1.000
    O2714   O    0.91909   0.11223   0.97541   1.000
    O2715   O    0.93002   0.10134   0.97566   1.000
    O2716   O    0.88793   0.91882   0.97623   1.000
    O2717   O    0.89904   0.92950   0.97634   1.000
    O2718   O    0.91722   0.88821   0.97712   1.000
    O2719   O    0.92833   0.89889   0.97717   1.000
    O2720   O    0.07167   0.09930   0.97729   1.000
    O2721   O    0.08271   0.11003   0.97741   1.000
    O2722   O    0.10115   0.06899   0.97767   1.000
    O2723   O    0.11219   0.07972   0.97777   1.000
    O2724   O    0.42163   0.61364   0.97803   1.000
    O2725   O    0.43245   0.60263   0.97823   1.000
    O2726   O    0.58223   0.61116   0.97849   1.000
    O2727   O    0.57126   0.60035   0.97867   1.000
    O2728   O    0.61183   0.58119   0.97860   1.000
    O2729   O    0.60089   0.57034   0.97878   1.000
    O2730   O    0.39146   0.58404   0.97878   1.000
    O2731   O    0.40227   0.57303   0.97895   1.000
    O2732   O    0.06939   0.89632   0.97929   1.000
    O2733   O    0.08032   0.88542   0.97939   1.000
    O2734   O    0.09858   0.92681   0.97956   1.000
    O2735   O    0.10958   0.91597   0.97967   1.000
    O2736   O    0.59928   0.42835   0.98001   1.000
    O2737   O    0.61002   0.41726   0.98006   1.000
    O2738   O    0.56916   0.39888   0.98022   1.000
    O2739   O    0.57995   0.38783   0.98026   1.000
    O2740   O    0.39904   0.43119   0.98056   1.000
    O2741   O    0.38817   0.42029   0.98067   1.000
    O2742   O    0.42919   0.40159   0.98058   1.000
    O2743   O    0.41833   0.39067   0.98071   1.000
    O2744   O    0.89100   0.09740   0.98745   1.000
    O2745   O    0.90385   0.11023   0.98754   1.000
    O2746   O    0.91509   0.07347   0.98798   1.000
    O2747   O    0.92792   0.08628   0.98808   1.000
    O2748   O    0.88947   0.90382   0.98877   1.000
    O2749   O    0.91392   0.92729   0.98897   1.000
    O2750   O    0.90203   0.89070   0.98916   1.000
    O2751   O    0.92647   0.91418   0.98929   1.000
    O2752   O    0.07334   0.08417   0.98971   1.000
    O2753   O    0.09762   0.10780   0.98997   1.000
    O2754   O    0.08598   0.07118   0.98988   1.000
    O2755   O    0.11027   0.09479   0.99012   1.000
    O2756   O    0.40659   0.61201   0.99045   1.000
    O2757   O    0.43041   0.58778   0.99088   1.000
    O2758   O    0.59740   0.60924   0.99075   1.000
    O2759   O    0.61009   0.59639   0.99078   1.000
    O2760   O    0.39366   0.59933   0.99074   1.000
    O2761   O    0.57327   0.58543   0.99121   1.000
    O2762   O    0.58598   0.57254   0.99124   1.000
    O2763   O    0.41748   0.57510   0.99115   1.000
    O2764   O    0.07110   0.91145   0.99165   1.000
    O2765   O    0.09523   0.88753   0.99187   1.000
    O2766   O    0.08357   0.92453   0.99175   1.000
    O2767   O    0.10775   0.90067   0.99198   1.000
    O2768   O    0.58427   0.42658   0.99240   1.000
    O2769   O    0.60793   0.40218   0.99245   1.000
    O2770   O    0.57136   0.41393   0.99251   1.000
    O2771   O    0.59505   0.38956   0.99255   1.000
    O2772   O    0.42715   0.41664   0.99290   1.000
    O2773   O    0.41421   0.42932   0.99291   1.000
    O2774   O    0.39030   0.40531   0.99315   1.000
    O2775   O    0.40327   0.39261   0.99317   1.000
    O2776   O    0.89099   0.09734   0.00573   1.000
    O2777   O    0.90356   0.11032   0.00583   1.000
    O2778   O    0.91506   0.07340   0.00628   1.000
    O2779   O    0.92762   0.08638   0.00638   1.000
    O2780   O    0.88935   0.90402   0.00704   1.000
    O2781   O    0.90178   0.89089   0.00737   1.000
    O2782   O    0.91380   0.92749   0.00726   1.000
    O2783   O    0.92625   0.91435   0.00754   1.000
    O2784   O    0.07303   0.08405   0.00799   1.000
    O2785   O    0.08586   0.07122   0.00816   1.000
    O2786   O    0.09732   0.10766   0.00824   1.000
    O2787   O    0.11017   0.09482   0.00842   1.000
    O2788   O    0.40652   0.61229   0.00876   1.000
    O2789   O    0.39376   0.59952   0.00887   1.000
    O2790   O    0.61036   0.59655   0.00894   1.000
    O2791   O    0.59770   0.60949   0.00897   1.000
    O2792   O    0.43036   0.58807   0.00922   1.000
    O2793   O    0.41759   0.57529   0.00933   1.000
    O2794   O    0.58625   0.57271   0.00948   1.000
    O2795   O    0.57354   0.58569   0.00951   1.000
    O2796   O    0.07093   0.91151   0.00991   1.000
    O2797   O    0.08368   0.92432   0.00994   1.000
    O2798   O    0.10786   0.90045   0.01020   1.000
    O2799   O    0.09506   0.88760   0.01020   1.000
    O2800   O    0.58450   0.42656   0.01060   1.000
    O2801   O    0.57149   0.41396   0.01081   1.000
    O2802   O    0.60812   0.40212   0.01059   1.000
    O2803   O    0.59513   0.38956   0.01077   1.000
    O2804   O    0.42723   0.41664   0.01120   1.000
    O2805   O    0.41429   0.42937   0.01121   1.000
    O2806   O    0.40336   0.39260   0.01144   1.000
    O2807   O    0.39040   0.40536   0.01147   1.000
    O2808   O    0.88906   0.08224   0.01824   1.000
    O2809   O    0.91838   0.11242   0.01847   1.000
    O2810   O    0.90000   0.07135   0.01849   1.000
    O2811   O    0.92932   0.10153   0.01873   1.000
    O2812   O    0.88762   0.91923   0.01929   1.000
    O2813   O    0.89872   0.92990   0.01941   1.000
    O2814   O    0.91662   0.88865   0.02000   1.000
    O2815   O    0.92774   0.89931   0.02008   1.000
    O2816   O    0.07099   0.09905   0.02032   1.000
    O2817   O    0.08204   0.10977   0.02043   1.000
    O2818   O    0.10086   0.06906   0.02072   1.000
    O2819   O    0.11192   0.07977   0.02084   1.000
    O2820   O    0.42146   0.61427   0.02122   1.000
    O2821   O    0.61245   0.58155   0.02136   1.000
    O2822   O    0.39170   0.58453   0.02140   1.000
    O2823   O    0.58288   0.61175   0.02146   1.000
    O2824   O    0.43230   0.60327   0.02144   1.000
    O2825   O    0.40252   0.57351   0.02161   1.000
    O2826   O    0.60150   0.57071   0.02162   1.000
    O2827   O    0.57189   0.60095   0.02173   1.000
    O2828   O    0.06899   0.89644   0.02230   1.000
    O2829   O    0.09878   0.92637   0.02232   1.000
    O2830   O    0.10976   0.91553   0.02246   1.000
    O2831   O    0.07993   0.88556   0.02247   1.000
    O2832   O    0.61048   0.41717   0.02275   1.000
    O2833   O    0.59976   0.42830   0.02277   1.000
    O2834   O    0.58016   0.38784   0.02323   1.000
    O2835   O    0.56943   0.39893   0.02327   1.000
    O2836   O    0.42940   0.40161   0.02362   1.000
    O2837   O    0.39923   0.43134   0.02366   1.000
    O2838   O    0.41856   0.39068   0.02374   1.000
    O2839   O    0.38836   0.42044   0.02378   1.000
    O2840   O    0.89873   0.02229   0.06876   1.000
    O2841   O    0.91362   0.00969   0.07112   1.000
    O2842   O    0.97769   0.10145   0.06899   1.000
    O2843   O    0.98992   0.08621   0.07111   1.000
    O2844   O    0.89830   0.97912   0.06905   1.000
    O2845   O    0.91343   0.99137   0.07124   1.000
    O2846   O    0.02092   0.10072   0.06920   1.000
    O2847   O    0.00824   0.08590   0.07120   1.000
    O2848   O    0.09934   0.01963   0.07011   1.000
    O2849   O    0.08403   0.00751   0.07202   1.000
    O2850   O    0.97632   0.89834   0.07020   1.000
    O2851   O    0.98892   0.91322   0.07213   1.000
    O2852   O    0.09884   0.97673   0.07046   1.000
    O2853   O    0.08381   0.98924   0.07217   1.000
    O2854   O    0.01932   0.89750   0.07074   1.000
    O2855   O    0.00719   0.91287   0.07236   1.000
    O2856   O    0.60285   0.52129   0.07069   1.000
    O2857   O    0.58760   0.50904   0.07271   1.000
    O2858   O    0.60226   0.47817   0.07096   1.000
    O2859   O    0.58733   0.49074   0.07281   1.000
    O2860   O    0.40081   0.52421   0.07122   1.000
    O2861   O    0.41557   0.51163   0.07360   1.000
    O2862   O    0.52343   0.60212   0.07157   1.000
    O2863   O    0.51088   0.58714   0.07353   1.000
    O2864   O    0.48048   0.60256   0.07163   1.000
    O2865   O    0.49265   0.58731   0.07353   1.000
    O2866   O    0.39975   0.48110   0.07239   1.000
    O2867   O    0.41511   0.49332   0.07413   1.000
    O2868   O    0.47889   0.40156   0.07326   1.000
    O2869   O    0.49138   0.41635   0.07536   1.000
    O2870   O    0.52163   0.40032   0.07382   1.000
    O2871   O    0.50956   0.41578   0.07563   1.000
    O2872   O    0.88765   0.02249   0.07943   1.000
    O2873   O    0.88721   0.97924   0.07972   1.000
    O2874   O    0.97775   0.11238   0.07981   1.000
    O2875   O    0.02106   0.11167   0.08000   1.000
    O2876   O    0.11013   0.01952   0.08113   1.000
    O2877   O    0.97600   0.88753   0.08120   1.000
    O2878   O    0.10965   0.97670   0.08146   1.000
    O2879   O    0.61385   0.52128   0.08150   1.000
    O2880   O    0.01902   0.88667   0.08173   1.000
    O2881   O    0.61327   0.47811   0.08176   1.000
    O2882   O    0.38986   0.52458   0.08203   1.000
    O2883   O    0.52368   0.61300   0.08245   1.000
    O2884   O    0.48065   0.61340   0.08254   1.000
    O2885   O    0.38880   0.48144   0.08318   1.000
    O2886   O    0.98972   0.07343   0.08398   1.000
    O2887   O    0.00799   0.07312   0.08401   1.000
    O2888   O    0.47873   0.39068   0.08421   1.000
    O2889   O    0.92625   0.00959   0.08411   1.000
    O2890   O    0.92599   0.99126   0.08429   1.000
    O2891   O    0.52153   0.38946   0.08479   1.000
    O2892   O    0.07098   0.00779   0.08455   1.000
    O2893   O    0.07090   0.98944   0.08483   1.000
    O2894   O    0.98897   0.92623   0.08465   1.000
    O2895   O    0.00724   0.92583   0.08495   1.000
    O2896   O    0.57458   0.50922   0.08521   1.000
    O2897   O    0.57463   0.49100   0.08565   1.000
    O2898   O    0.51081   0.57408   0.08606   1.000
    O2899   O    0.49254   0.57451   0.08633   1.000
    O2900   O    0.42816   0.49339   0.08670   1.000
    O2901   O    0.42808   0.51165   0.08671   1.000
    O2902   O    0.50982   0.42881   0.08813   1.000
    O2903   O    0.49149   0.42902   0.08823   1.000
    O2904   O    0.88926   0.01007   0.09461   1.000
    O2905   O    0.88908   0.99169   0.09474   1.000
    O2906   O    0.99012   0.11024   0.09492   1.000
    O2907   O    0.00853   0.10996   0.09499   1.000
    O2908   O    0.10780   0.00734   0.09626   1.000
    O2909   O    0.98828   0.88944   0.09636   1.000
    O2910   O    0.10759   0.98915   0.09639   1.000
    O2911   O    0.61177   0.50902   0.09654   1.000
    O2912   O    0.61152   0.49068   0.09664   1.000
    O2913   O    0.00656   0.88908   0.09658   1.000
    O2914   O    0.39150   0.51236   0.09739   1.000
    O2915   O    0.51144   0.61102   0.09753   1.000
    O2916   O    0.49313   0.61116   0.09756   1.000
    O2917   O    0.39103   0.49403   0.09791   1.000
    O2918   O    0.97728   0.07163   0.09903   1.000
    O2919   O    0.02035   0.07091   0.09907   1.000
    O2920   O    0.92816   0.02204   0.09906   1.000
    O2921   O    0.06894   0.02033   0.09937   1.000
    O2922   O    0.49104   0.39248   0.09949   1.000
    O2923   O    0.97651   0.92865   0.09947   1.000
    O2924   O    0.92759   0.97883   0.09946   1.000
    O2925   O    0.06873   0.97715   0.09998   1.000
    O2926   O    0.50927   0.39193   0.09978   1.000
    O2927   O    0.57256   0.52168   0.09998   1.000
    O2928   O    0.01951   0.92774   0.10012   1.000
    O2929   O    0.57266   0.47884   0.10093   1.000
    O2930   O    0.52332   0.57170   0.10088   1.000
    O2931   O    0.48029   0.57264   0.10151   1.000
    O2932   O    0.43016   0.48124   0.10183   1.000
    O2933   O    0.43007   0.52418   0.10175   1.000
    O2934   O    0.52234   0.43069   0.10305   1.000
    O2935   O    0.47909   0.43124   0.10327   1.000
    O2936   O    0.90193   0.00992   0.10764   1.000
    O2937   O    0.90167   0.99154   0.10782   1.000
    O2938   O    0.98996   0.09743   0.10784   1.000
    O2939   O    0.00831   0.09712   0.10784   1.000
    O2940   O    0.09476   0.00764   0.10876   1.000
    O2941   O    0.09469   0.98934   0.10903   1.000
    O2942   O    0.98845   0.90247   0.10890   1.000
    O2943   O    0.00672   0.90205   0.10919   1.000
    O2944   O    0.59874   0.50921   0.10907   1.000
    O2945   O    0.59881   0.49099   0.10949   1.000
    O2946   O    0.51144   0.59791   0.11010   1.000
    O2947   O    0.49313   0.59831   0.11040   1.000
    O2948   O    0.40411   0.49405   0.11051   1.000
    O2949   O    0.40403   0.51232   0.11053   1.000
    O2950   O    0.91712   0.02218   0.10977   1.000
    O2951   O    0.97738   0.08253   0.10990   1.000
    O2952   O    0.02051   0.08183   0.10991   1.000
    O2953   O    0.07975   0.02025   0.11036   1.000
    O2954   O    0.91654   0.97892   0.11017   1.000
    O2955   O    0.97631   0.91785   0.11049   1.000
    O2956   O    0.50956   0.40501   0.11233   1.000
    O2957   O    0.49114   0.40523   0.11243   1.000
    O2958   O    0.58355   0.52167   0.11081   1.000
    O2959   O    0.07956   0.97711   0.11096   1.000
    O2960   O    0.01932   0.91693   0.11113   1.000
    O2961   O    0.52364   0.58253   0.11181   1.000
    O2962   O    0.58366   0.47884   0.11174   1.000
    O2963   O    0.48058   0.58345   0.11247   1.000
    O2964   O    0.41914   0.52448   0.11258   1.000
    O2965   O    0.41924   0.48154   0.11265   1.000
    O2966   O    0.52225   0.41988   0.11407   1.000
    O2967   O    0.47891   0.42045   0.11429   1.000
    O2968   O    0.33921   0.21221   0.12374   1.000
    O2969   O    0.70922   0.84586   0.12480   1.000
    O2970   O    0.15426   0.28928   0.12470   1.000
    O2971   O    0.70978   0.15555   0.12478   1.000
    O2972   O    0.29031   0.83933   0.12446   1.000
    O2973   O    0.20965   0.34120   0.12459   1.000
    O2974   O    0.79117   0.65524   0.12576   1.000
    O2975   O    0.79198   0.34417   0.12545   1.000
    O2976   O    0.28679   0.15890   0.12552   1.000
    O2977   O    0.15938   0.70944   0.12611   1.000
    O2978   O    0.65492   0.79172   0.12646   1.000
    O2979   O    0.21169   0.65495   0.12657   1.000
    O2980   O    0.65541   0.21007   0.12735   1.000
    O2981   O    0.84632   0.29009   0.12739   1.000
    O2982   O    0.84379   0.71043   0.12742   1.000
    O2983   O    0.34656   0.78864   0.12815   1.000
    O2984   O    0.35160   0.21564   0.13229   1.000
    O2985   O    0.34259   0.20342   0.13545   1.000
    O2986   O    0.28627   0.85168   0.13279   1.000
    O2987   O    0.29870   0.84301   0.13636   1.000
    O2988   O    0.21326   0.35333   0.13345   1.000
    O2989   O    0.20099   0.34429   0.13639   1.000
    O2990   O    0.14232   0.28632   0.13404   1.000
    O2991   O    0.15221   0.29802   0.13672   1.000
    O2992   O    0.71332   0.14356   0.13395   1.000
    O2993   O    0.70151   0.15322   0.13712   1.000
    O2994   O    0.71272   0.85758   0.13425   1.000
    O2995   O    0.70101   0.84782   0.13722   1.000
    O2996   O    0.28400   0.14643   0.13423   1.000
    O2997   O    0.29611   0.15572   0.13682   1.000
    O2998   O    0.78871   0.35622   0.13455   1.000
    O2999   O    0.80047   0.34647   0.13767   1.000
    O3000   O    0.14710   0.71307   0.13482   1.000
    O3001   O    0.15624   0.70086   0.13793   1.000
    O3002   O    0.78774   0.64359   0.13541   1.000
    O3003   O    0.79866   0.65410   0.13875   1.000
    O3004   O    0.21441   0.64261   0.13552   1.000
    O3005   O    0.20268   0.65243   0.13830   1.000
    O3006   O    0.64318   0.78855   0.13597   1.000
    O3007   O    0.65294   0.80038   0.13854   1.000
    O3008   O    0.85689   0.71211   0.13549   1.000
    O3009   O    0.84641   0.70118   0.13897   1.000
    O3010   O    0.64372   0.21298   0.13706   1.000
    O3011   O    0.65347   0.20101   0.13920   1.000
    O3012   O    0.85812   0.28693   0.13693   1.000
    O3013   O    0.84837   0.29880   0.13940   1.000
    O3014   O    0.35878   0.78645   0.13750   1.000
    O3015   O    0.34859   0.79803   0.13959   1.000
    O3016   O    0.36282   0.21581   0.14274   1.000
    O3017   O    0.28550   0.86298   0.14308   1.000
    O3018   O    0.21354   0.36421   0.14421   1.000
    O3019   O    0.71373   0.13297   0.14504   1.000
    O3020   O    0.28462   0.13519   0.14466   1.000
    O3021   O    0.13188   0.28652   0.14522   1.000
    O3022   O    0.71311   0.86781   0.14561   1.000
    O3023   O    0.78857   0.36687   0.14552   1.000
    O3024   O    0.13613   0.71330   0.14550   1.000
    O3025   O    0.86839   0.71073   0.14555   1.000
    O3026   O    0.21393   0.63169   0.14628   1.000
    O3027   O    0.78717   0.63371   0.14718   1.000
    O3028   O    0.63292   0.78857   0.14731   1.000
    O3029   O    0.86842   0.28701   0.14830   1.000
    O3030   O    0.63361   0.21268   0.14853   1.000
    O3031   O    0.33162   0.18659   0.14103   1.000
    O3032   O    0.31269   0.16703   0.14154   1.000
    O3033   O    0.36933   0.78757   0.14858   1.000
    O3034   O    0.18419   0.33330   0.14171   1.000
    O3035   O    0.16440   0.31436   0.14189   1.000
    O3036   O    0.16440   0.33110   0.14791   1.000
    O3037   O    0.17215   0.32358   0.15532   1.000
    O3038   O    0.34818   0.19624   0.14760   1.000
    O3039   O    0.19388   0.34951   0.14868   1.000
    O3040   O    0.30400   0.15032   0.14861   1.000
    O3041   O    0.31581   0.83252   0.14248   1.000
    O3042   O    0.30540   0.84889   0.14860   1.000
    O3043   O    0.68463   0.83605   0.14294   1.000
    O3044   O    0.66503   0.81685   0.14347   1.000
    O3045   O    0.66511   0.83365   0.14975   1.000
    O3046   O    0.67276   0.82566   0.15673   1.000
    O3047   O    0.33614   0.81417   0.14379   1.000
    O3048   O    0.14787   0.30523   0.14929   1.000
    O3049   O    0.68501   0.16505   0.14298   1.000
    O3050   O    0.66546   0.18442   0.14378   1.000
    O3051   O    0.66842   0.16470   0.14962   1.000
    O3052   O    0.67633   0.17225   0.15672   1.000
    O3053   O    0.16728   0.68415   0.14330   1.000
    O3054   O    0.18623   0.66441   0.14342   1.000
    O3055   O    0.16914   0.66444   0.14919   1.000
    O3056   O    0.17698   0.67157   0.15683   1.000
    O3057   O    0.81701   0.33462   0.14345   1.000
    O3058   O    0.83648   0.31525   0.14418   1.000
    O3059   O    0.83391   0.33481   0.14989   1.000
    O3060   O    0.82590   0.32745   0.15713   1.000
    O3061   O    0.69485   0.14859   0.14989   1.000
    O3062   O    0.69436   0.85203   0.15011   1.000
    O3063   O    0.80738   0.35113   0.15031   1.000
    O3064   O    0.15101   0.69376   0.15025   1.000
    O3065   O    0.19518   0.64760   0.15052   1.000
    O3066   O    0.64870   0.80749   0.15121   1.000
    O3067   O    0.64939   0.19355   0.15173   1.000
    O3068   O    0.83336   0.68595   0.14512   1.000
    O3069   O    0.85143   0.69327   0.15092   1.000
    O3070   O    0.35282   0.80608   0.15166   1.000
    O3071   O    0.85261   0.30599   0.15201   1.000
    O3072   O    0.81361   0.66722   0.14529   1.000
    O3073   O    0.80460   0.65074   0.15227   1.000
    O3074   O    0.83174   0.66930   0.15177   1.000
    O3075   O    0.36055   0.20367   0.15218   1.000
    O3076   O    0.37227   0.21274   0.15459   1.000
    O3077   O    0.29746   0.86110   0.15284   1.000
    O3078   O    0.28798   0.87259   0.15488   1.000
    O3079   O    0.20139   0.36168   0.15360   1.000
    O3080   O    0.21057   0.37328   0.15636   1.000
    O3081   O    0.29714   0.13776   0.15353   1.000
    O3082   O    0.28847   0.12578   0.15637   1.000
    O3083   O    0.35050   0.16989   0.16325   1.000
    O3084   O    0.86485   0.69897   0.15507   1.000
    O3085   O    0.87767   0.70644   0.15716   1.000
    O3086   O    0.70221   0.13624   0.15486   1.000
    O3087   O    0.71102   0.12439   0.15757   1.000
    O3088   O    0.13547   0.29832   0.15461   1.000
    O3089   O    0.12351   0.28984   0.15772   1.000
    O3090   O    0.13873   0.70120   0.15503   1.000
    O3091   O    0.12698   0.71022   0.15763   1.000
    O3092   O    0.80021   0.36356   0.15523   1.000
    O3093   O    0.79154   0.37549   0.15792   1.000
    O3094   O    0.70164   0.86420   0.15537   1.000
    O3095   O    0.71037   0.87599   0.15836   1.000
    O3096   O    0.35604   0.18679   0.16377   1.000
    O3097   O    0.20193   0.63495   0.15552   1.000
    O3098   O    0.21026   0.62276   0.15833   1.000
    O3099   O    0.31414   0.85721   0.16493   1.000
    O3100   O    0.33119   0.85209   0.16497   1.000
    O3101   O    0.31457   0.14332   0.16407   1.000
    O3102   O    0.18445   0.35643   0.16490   1.000
    O3103   O    0.63648   0.80039   0.15669   1.000
    O3104   O    0.62468   0.79174   0.15994   1.000
    O3105   O    0.79768   0.63833   0.15756   1.000
    O3106   O    0.78940   0.62619   0.16054   1.000
    O3107   O    0.14150   0.31461   0.16606   1.000
    O3108   O    0.36545   0.79985   0.15731   1.000
    O3109   O    0.37775   0.79195   0.16083   1.000
    O3110   O    0.86483   0.29893   0.15759   1.000
    O3111   O    0.87672   0.29032   0.16091   1.000
    O3112   O    0.63728   0.20054   0.15755   1.000
    O3113   O    0.62551   0.20912   0.16117   1.000
    O3114   O    0.68614   0.14158   0.16684   1.000
    O3115   O    0.14417   0.68435   0.16651   1.000
    O3116   O    0.81650   0.35823   0.16695   1.000
    O3117   O    0.68563   0.85810   0.16702   1.000
    O3118   O    0.85847   0.68319   0.16720   1.000
    O3119   O    0.18531   0.64054   0.16671   1.000
    O3120   O    0.64243   0.81677   0.16815   1.000
    O3121   O    0.35856   0.81687   0.16738   1.000
    O3122   O    0.64380   0.18388   0.16833   1.000
    O3123   O    0.85850   0.31550   0.16862   1.000
    O3124   O    0.81212   0.64621   0.17020   1.000
    O3125   O    0.34295   0.17692   0.17125   1.000
    O3126   O    0.32398   0.84451   0.17274   1.000
    O3127   O    0.84463   0.67660   0.17530   1.000
    O3128   O    0.33464   0.14339   0.18268   1.000
    O3129   O    0.35708   0.16724   0.18287   1.000
    O3130   O    0.16554   0.35660   0.18464   1.000
    O3131   O    0.33313   0.85907   0.18458   1.000
    O3132   O    0.14236   0.33360   0.18552   1.000
    O3133   O    0.14347   0.66470   0.18558   1.000
    O3134   O    0.16570   0.64064   0.18553   1.000
    O3135   O    0.35725   0.83700   0.18558   1.000
    O3136   O    0.83538   0.35857   0.18649   1.000
    O3137   O    0.66728   0.85801   0.18688   1.000
    O3138   O    0.66768   0.14138   0.18681   1.000
    O3139   O    0.85722   0.66441   0.18708   1.000
    O3140   O    0.64471   0.16453   0.18749   1.000
    O3141   O    0.64342   0.83579   0.18769   1.000
    O3142   O    0.85809   0.33508   0.18754   1.000
    O3143   O    0.83034   0.64619   0.18973   1.000
    O3144   O    0.35078   0.15049   0.19209   1.000
    O3145   O    0.36310   0.15585   0.19910   1.000
    O3146   O    0.34650   0.13784   0.19922   1.000
    O3147   O    0.34971   0.85321   0.19439   1.000
    O3148   O    0.34407   0.86561   0.20100   1.000
    O3149   O    0.14940   0.64791   0.19472   1.000
    O3150   O    0.15398   0.63512   0.20151   1.000
    O3151   O    0.14974   0.34983   0.19477   1.000
    O3152   O    0.15487   0.36207   0.20200   1.000
    O3153   O    0.36225   0.84912   0.20186   1.000
    O3154   O    0.13706   0.65290   0.20188   1.000
    O3155   O    0.13772   0.34458   0.20233   1.000
    O3156   O    0.85149   0.35173   0.19631   1.000
    O3157   O    0.84651   0.36448   0.20278   1.000
    O3158   O    0.65167   0.14825   0.19670   1.000
    O3159   O    0.65698   0.13583   0.20362   1.000
    O3160   O    0.65120   0.85177   0.19687   1.000
    O3161   O    0.65683   0.86396   0.20379   1.000
    O3162   O    0.86380   0.34710   0.20382   1.000
    O3163   O    0.84826   0.64984   0.19755   1.000
    O3164   O    0.86197   0.65233   0.20346   1.000
    O3165   O    0.63948   0.15302   0.20423   1.000
    O3166   O    0.63890   0.84731   0.20447   1.000
    O3167   O    0.84160   0.63887   0.20561   1.000
    O3168   O    0.37500   0.15904   0.20762   1.000
    O3169   O    0.36673   0.14640   0.21089   1.000
    O3170   O    0.34448   0.12570   0.20791   1.000
    O3171   O    0.35635   0.13513   0.21098   1.000
    O3172   O    0.34058   0.87766   0.20914   1.000
    O3173   O    0.35325   0.86948   0.21293   1.000
    O3174   O    0.15648   0.62288   0.20972   1.000
    O3175   O    0.14436   0.63191   0.21323   1.000
    O3176   O    0.12512   0.65562   0.21057   1.000
    O3177   O    0.13376   0.64301   0.21350   1.000
    O3178   O    0.37417   0.84724   0.21079   1.000
    O3179   O    0.36463   0.85917   0.21347   1.000
    O3180   O    0.15786   0.37376   0.21101   1.000
    O3181   O    0.14588   0.36459   0.21443   1.000
    O3182   O    0.84365   0.37680   0.21070   1.000
    O3183   O    0.85585   0.36805   0.21463   1.000
    O3184   O    0.12620   0.34151   0.21137   1.000
    O3185   O    0.13517   0.35363   0.21460   1.000
    O3186   O    0.87493   0.65281   0.21107   1.000
    O3187   O    0.86404   0.64274   0.21550   1.000
    O3188   O    0.66019   0.12387   0.21206   1.000
    O3189   O    0.64796   0.13264   0.21581   1.000
    O3190   O    0.66026   0.87581   0.21227   1.000
    O3191   O    0.64793   0.86731   0.21601   1.000
    O3192   O    0.87567   0.34475   0.21276   1.000
    O3193   O    0.86669   0.35718   0.21531   1.000
    O3194   O    0.62782   0.15559   0.21329   1.000
    O3195   O    0.63699   0.14338   0.21621   1.000
    O3196   O    0.62723   0.84501   0.21361   1.000
    O3197   O    0.63672   0.85689   0.21645   1.000
    O3198   O    0.83728   0.62798   0.21499   1.000
    O3199   O    0.85129   0.63431   0.21683   1.000
    O3200   O    0.08930   0.99844   0.09051   1.000
    O3201   O    0.90765   0.00064   0.08945   1.000
    O3202   O    0.99909   0.09169   0.08948   1.000
    O3203   O    0.99779   0.90765   0.09064   1.000
    O3204   O    0.09101   0.99790   0.90861   1.000
    O3205   O    0.91024   0.00012   0.90609   1.000
    O3206   O    0.09170   0.08946   0.99906   1.000
    O3207   O    0.08939   0.90598   0.00094   1.000
    O3208   O    0.90939   0.09185   0.99689   1.000
    O3209   O    0.90788   0.90910   0.99816   1.000
    O3210   O    0.00134   0.09106   0.90683   1.000
    O3211   O    0.99973   0.90695   0.90853   1.000
    O3212   O    0.00149   0.40893   0.40936   1.000
    O3213   O    0.99971   0.59235   0.41069   1.000
    O3214   O    0.90876   0.50025   0.40948   1.000
    O3215   O    0.09117   0.50114   0.40847   1.000
    O3216   O    0.00142   0.40833   0.58958   1.000
    O3217   O    0.00065   0.58992   0.59115   1.000
    O3218   O    0.90853   0.40850   0.49940   1.000
    O3219   O    0.09381   0.40952   0.49922   1.000
    O3220   O    0.90858   0.59154   0.50073   1.000
    O3221   O    0.09203   0.59134   0.50079   1.000
    O3222   O    0.90931   0.49896   0.59102   1.000
    O3223   O    0.09267   0.49927   0.59135   1.000
    O3224   O    0.50068   0.90970   0.40920   1.000
    O3225   O    0.49839   0.09101   0.40857   1.000
    O3226   O    0.40776   0.99955   0.40808   1.000
    O3227   O    0.59130   0.00161   0.40957   1.000
    O3228   O    0.50016   0.90855   0.59150   1.000
    O3229   O    0.49755   0.09096   0.59270   1.000
    O3230   O    0.40927   0.90827   0.49949   1.000
    O3231   O    0.59139   0.91025   0.50110   1.000
    O3232   O    0.40726   0.08925   0.50002   1.000
    O3233   O    0.58948   0.09165   0.50117   1.000
    O3234   O    0.40830   0.99893   0.59198   1.000
    O3235   O    0.58973   0.00120   0.59219   1.000
    O3236   O    0.49966   0.40934   0.90935   1.000
    O3237   O    0.50175   0.59062   0.90745   1.000
    O3238   O    0.40917   0.50111   0.90999   1.000
    O3239   O    0.59195   0.49903   0.90940   1.000
    O3240   O    0.50040   0.41060   0.09395   1.000
    O3241   O    0.50200   0.59268   0.09189   1.000
    O3242   O    0.40877   0.41098   0.00219   1.000
    O3243   O    0.58971   0.40805   0.00159   1.000
    O3244   O    0.41208   0.59370   0.99991   1.000
    O3245   O    0.59181   0.59101   0.00012   1.000
    O3246   O    0.40969   0.50284   0.09218   1.000
    O3247   O    0.59314   0.49999   0.09100   1.000
    N3248   N    0.12577   0.05371   0.05565   1.000
    O3249   O    0.11887   0.04204   0.06215   1.000
    O3250   O    0.11943   0.06051   0.04378   1.000
    O3251   O    0.24072   0.11680   0.11690   1.000
    N3252   N    0.05670   0.12494   0.05490   1.000
    O3253   O    0.06314   0.11820   0.04312   1.000
    O3254   O    0.04451   0.11886   0.06132   1.000
    O3255   O    0.11438   0.24258   0.11640   1.000
    N3256   N    0.87421   0.05763   0.05344   1.000
    O3257   O    0.88039   0.04561   0.06019   1.000
    O3258   O    0.88087   0.06383   0.04147   1.000
    O3259   O    0.75693   0.11580   0.11514   1.000
    N3260   N    0.94283   0.12673   0.05407   1.000
    O3261   O    0.93667   0.12030   0.04196   1.000
    O3262   O    0.95475   0.12030   0.06072   1.000
    O3263   O    0.88562   0.24322   0.11869   1.000
    N3264   N    0.37633   0.55948   0.05600   1.000
    O3265   O    0.38251   0.54750   0.06273   1.000
    O3266   O    0.38316   0.56585   0.04424   1.000
    O3267   O    0.25802   0.61518   0.11722   1.000
    N3268   N    0.55843   0.62681   0.05656   1.000
    O3269   O    0.54652   0.62056   0.06326   1.000
    O3270   O    0.56458   0.62012   0.04462   1.000
    O3271   O    0.61563   0.74463   0.11825   1.000
    N3272   N    0.94119   0.87369   0.05530   1.000
    O3273   O    0.93499   0.88033   0.04329   1.000
    O3274   O    0.95312   0.87995   0.06198   1.000
    O3275   O    0.88509   0.75512   0.11672   1.000
    N3276   N    0.44584   0.62811   0.05694   1.000
    O3277   O    0.45770   0.62158   0.06353   1.000
    O3278   O    0.43971   0.62185   0.04475   1.000
    O3279   O    0.38706   0.74377   0.12068   1.000
    N3280   N    0.44458   0.37586   0.05809   1.000
    O3281   O    0.45624   0.38252   0.06485   1.000
    O3282   O    0.43783   0.38253   0.04638   1.000
    O3283   O    0.38104   0.25925   0.11491   1.000
    N3284   N    0.55506   0.37368   0.05829   1.000
    O3285   O    0.56148   0.38013   0.04633   1.000
    O3286   O    0.54368   0.38065   0.06524   1.000
    O3287   O    0.61467   0.25643   0.11984   1.000
    N3288   N    0.62765   0.55634   0.05598   1.000
    O3289   O    0.62088   0.56278   0.04420   1.000
    O3290   O    0.62141   0.54434   0.06253   1.000
    O3291   O    0.74513   0.61458   0.11701   1.000
    N3292   N    0.37386   0.44646   0.05822   1.000
    O3293   O    0.38039   0.43969   0.04648   1.000
    O3294   O    0.38054   0.45833   0.06461   1.000
    O3295   O    0.25724   0.38269   0.11643   1.000
    N3296   N    0.87329   0.94414   0.05430   1.000
    O3297   O    0.87961   0.95611   0.06085   1.000
    O3298   O    0.87979   0.93782   0.04235   1.000
    O3299   O    0.75630   0.88564   0.11612   1.000
    N3300   N    0.55807   0.44473   0.12730   1.000
    O3301   O    0.54586   0.43839   0.12124   1.000
    O3302   O    0.56462   0.45638   0.12042   1.000
    O3303   O    0.61536   0.38327   0.24508   1.000
    N3304   N    0.94234   0.05714   0.12428   1.000
    O3305   O    0.93593   0.04518   0.11780   1.000
    O3306   O    0.95427   0.06367   0.11782   1.000
    O3307   O    0.88648   0.11910   0.24258   1.000
    N3308   N    0.44436   0.44685   0.12815   1.000
    O3309   O    0.45616   0.43995   0.12183   1.000
    O3310   O    0.43797   0.45864   0.12130   1.000
    O3311   O    0.38220   0.38362   0.24187   1.000
    N3312   N    0.44563   0.55846   0.12727   1.000
    O3313   O    0.45750   0.56484   0.12063   1.000
    O3314   O    0.43870   0.54686   0.12066   1.000
    O3315   O    0.38297   0.61722   0.24363   1.000
    N3316   N    0.94163   0.94348   0.12466   1.000
    O3317   O    0.95351   0.93692   0.11821   1.000
    O3318   O    0.93523   0.95556   0.11822   1.000
    O3319   O    0.88235   0.88590   0.24323   1.000
    N3320   N    0.05440   0.94217   0.12537   1.000
    O3321   O    0.06080   0.95413   0.11887   1.000
    O3322   O    0.04246   0.93569   0.11894   1.000
    O3323   O    0.11174   0.87968   0.24297   1.000
    N3324   N    0.05519   0.05584   0.12428   1.000
    O3325   O    0.04331   0.06255   0.11784   1.000
    O3326   O    0.06139   0.04370   0.11793   1.000
    O3327   O    0.11300   0.11769   0.24142   1.000
    N3328   N    0.55838   0.55641   0.12563   1.000
    O3329   O    0.54646   0.56317   0.11935   1.000
    O3330   O    0.56478   0.54457   0.11897   1.000
    O3331   O    0.61484   0.61769   0.24314   1.000
    N3332   N    0.12460   0.94200   0.05628   1.000
    O3333   O    0.11792   0.95383   0.06271   1.000
    O3334   O    0.11791   0.93506   0.04476   1.000
    O3335   O    0.24215   0.88018   0.11437   1.000
    N3336   N    0.05385   0.87130   0.05697   1.000
    O3337   O    0.04200   0.87808   0.06325   1.000
    O3338   O    0.06063   0.87772   0.04519   1.000
    O3339   O    0.11776   0.75608   0.11741   1.000
    N3340   N    0.62633   0.44243   0.05677   1.000
    O3341   O    0.62034   0.45463   0.06316   1.000
    O3342   O    0.61937   0.43601   0.04516   1.000
    O3343   O    0.74494   0.38429   0.11637   1.000
    N3344   N    0.55720   0.44262   0.87461   1.000
    O3345   O    0.54507   0.43632   0.88094   1.000
    O3346   O    0.56368   0.45450   0.88114   1.000
    O3347   O    0.61439   0.38211   0.75602   1.000
    N3348   N    0.94543   0.05617   0.87113   1.000
    O3349   O    0.93892   0.04432   0.87769   1.000
    O3350   O    0.95709   0.06290   0.87784   1.000
    O3351   O    0.88567   0.11870   0.75471   1.000
    N3352   N    0.05697   0.05442   0.87267   1.000
    O3353   O    0.04529   0.06133   0.87913   1.000
    O3354   O    0.06333   0.04251   0.87940   1.000
    O3355   O    0.11429   0.11921   0.75720   1.000
    N3356   N    0.05593   0.94184   0.87348   1.000
    O3357   O    0.06261   0.95359   0.88005   1.000
    O3358   O    0.04420   0.93521   0.88014   1.000
    O3359   O    0.11878   0.88404   0.75685   1.000
    N3360   N    0.44492   0.55588   0.87347   1.000
    O3361   O    0.43804   0.54446   0.88043   1.000
    O3362   O    0.45690   0.56235   0.87982   1.000
    O3363   O    0.38081   0.61324   0.75713   1.000
    N3364   N    0.44406   0.44543   0.87429   1.000
    O3365   O    0.45581   0.43862   0.88080   1.000
    O3366   O    0.43746   0.45707   0.88108   1.000
    O3367   O    0.38574   0.38186   0.75883   1.000
    N3368   N    0.94434   0.94249   0.87262   1.000
    O3369   O    0.95604   0.93591   0.87944   1.000
    O3370   O    0.93801   0.95471   0.87868   1.000
    O3371   O    0.88302   0.88477   0.75506   1.000
    N3372   N    0.55821   0.55543   0.87326   1.000
    O3373   O    0.54623   0.56204   0.87947   1.000
    O3374   O    0.56447   0.54347   0.87996   1.000
    O3375   O    0.61654   0.61893   0.75693   1.000
    N3376   N    0.94303   0.87255   0.94324   1.000
    O3377   O    0.95489   0.87896   0.93660   1.000
    O3378   O    0.93641   0.87943   0.95482   1.000
    O3379   O    0.88382   0.75661   0.88007   1.000
    N3380   N    0.44335   0.37573   0.94585   1.000
    O3381   O    0.43698   0.38243   0.95771   1.000
    O3382   O    0.45505   0.38217   0.93890   1.000
    O3383   O    0.38376   0.25995   0.88312   1.000
    N3384   N    0.05801   0.12499   0.94218   1.000
    O3385   O    0.06425   0.11834   0.95417   1.000
    O3386   O    0.04608   0.11873   0.93550   1.000
    O3387   O    0.11465   0.24325   0.88107   1.000
    N3388   N    0.37561   0.55774   0.94543   1.000
    O3389   O    0.38195   0.54585   0.93881   1.000
    O3390   O    0.38261   0.56454   0.95683   1.000
    O3391   O    0.25916   0.61525   0.88204   1.000
    N3392   N    0.62531   0.44231   0.94543   1.000
    O3393   O    0.61916   0.45434   0.93875   1.000
    O3394   O    0.61852   0.43596   0.95723   1.000
    O3395   O    0.74252   0.38579   0.88278   1.000
    N3396   N    0.55748   0.62539   0.94320   1.000
    O3397   O    0.56370   0.61898   0.95530   1.000
    O3398   O    0.54581   0.61883   0.93640   1.000
    O3399   O    0.61410   0.74309   0.88171   1.000
    N3400   N    0.12484   0.94196   0.94565   1.000
    O3401   O    0.11799   0.93525   0.95723   1.000
    O3402   O    0.11834   0.95368   0.93872   1.000
    O3403   O    0.24109   0.88447   0.88289   1.000
    N3404   N    0.87467   0.05613   0.94088   1.000
    O3405   O    0.88146   0.04443   0.93432   1.000
    O3406   O    0.88122   0.06295   0.95259   1.000
    O3407   O    0.75725   0.11869   0.88289   1.000
    N3408   N    0.94537   0.12686   0.94126   1.000
    O3409   O    0.93853   0.12029   0.95293   1.000
    O3410   O    0.95719   0.12014   0.93485   1.000
    O3411   O    0.88196   0.24329   0.88219   1.000
    N3412   N    0.87453   0.94436   0.94093   1.000
    O3413   O    0.88070   0.93777   0.95299   1.000
    O3414   O    0.88130   0.95614   0.93450   1.000
    O3415   O    0.75661   0.88267   0.88441   1.000
    N3416   N    0.44697   0.62729   0.94288   1.000
    O3417   O    0.45843   0.62030   0.93614   1.000
    O3418   O    0.44046   0.62102   0.95489   1.000
    O3419   O    0.38249   0.74316   0.88444   1.000
    N3420   N    0.05477   0.87098   0.94459   1.000
    O3421   O    0.04316   0.87779   0.93784   1.000
    O3422   O    0.06137   0.87748   0.95642   1.000
    O3423   O    0.11849   0.75617   0.88405   1.000
    N3424   N    0.37360   0.44563   0.94565   1.000
    O3425   O    0.38029   0.45729   0.93889   1.000
    O3426   O    0.38014   0.43912   0.95757   1.000
    O3427   O    0.25812   0.38101   0.88703   1.000
    N3428   N    0.12670   0.05385   0.94328   1.000
    O3429   O    0.12014   0.06058   0.95501   1.000
    O3430   O    0.12001   0.04208   0.93675   1.000
    O3431   O    0.24259   0.11826   0.88487   1.000
    N3432   N    0.55523   0.37386   0.94502   1.000
    O3433   O    0.56146   0.38021   0.95708   1.000
    O3434   O    0.54344   0.38041   0.93832   1.000
    O3435   O    0.61371   0.25622   0.88470   1.000
    N3436   N    0.62614   0.55599   0.94383   1.000
    O3437   O    0.61983   0.54396   0.93741   1.000
    O3438   O    0.61967   0.56240   0.95574   1.000
    O3439   O    0.74495   0.61390   0.88525   1.000
    N3440   N    0.94537   0.37325   0.55454   1.000
    O3441   O    0.93839   0.37995   0.54297   1.000
    O3442   O    0.95726   0.37982   0.56097   1.000
    O3443   O    0.88112   0.25878   0.61508   1.000
    N3444   N    0.12866   0.44426   0.55542   1.000
    O3445   O    0.12186   0.45575   0.56234   1.000
    O3446   O    0.12216   0.43790   0.54348   1.000
    O3447   O    0.24388   0.38367   0.61912   1.000
    N3448   N    0.37298   0.05498   0.55679   1.000
    O3449   O    0.37931   0.06119   0.54468   1.000
    O3450   O    0.37955   0.04321   0.56350   1.000
    O3451   O    0.25622   0.11255   0.61950   1.000
    N3452   N    0.87425   0.44262   0.55661   1.000
    O3453   O    0.88086   0.45452   0.56294   1.000
    O3454   O    0.88049   0.43615   0.54455   1.000
    O3455   O    0.75576   0.38362   0.61532   1.000
    N3456   N    0.12756   0.55561   0.55643   1.000
    O3457   O    0.12086   0.56240   0.54477   1.000
    O3458   O    0.12097   0.54381   0.56302   1.000
    O3459   O    0.24358   0.61958   0.61401   1.000
    N3460   N    0.55298   0.12609   0.55676   1.000
    O3461   O    0.54126   0.11941   0.56337   1.000
    O3462   O    0.55984   0.11951   0.54511   1.000
    O3463   O    0.61742   0.24054   0.61640   1.000
    N3464   N    0.94489   0.62595   0.55639   1.000
    O3465   O    0.95663   0.61910   0.56285   1.000
    O3466   O    0.93792   0.61947   0.54477   1.000
    O3467   O    0.88294   0.74094   0.61788   1.000
    N3468   N    0.62515   0.94536   0.55764   1.000
    O3469   O    0.61844   0.95717   0.56400   1.000
    O3470   O    0.61888   0.93879   0.54571   1.000
    O3471   O    0.74260   0.88285   0.61414   1.000
    N3472   N    0.44089   0.12460   0.55663   1.000
    O3473   O    0.43473   0.11789   0.54469   1.000
    O3474   O    0.45275   0.11833   0.56352   1.000
    O3475   O    0.38446   0.24302   0.61677   1.000
    N3476   N    0.87364   0.55511   0.55615   1.000
    O3477   O    0.88029   0.56212   0.54461   1.000
    O3478   O    0.88035   0.54329   0.56266   1.000
    O3479   O    0.75893   0.61427   0.61875   1.000
    N3480   N    0.44397   0.87381   0.55630   1.000
    O3481   O    0.45586   0.88024   0.56289   1.000
    O3482   O    0.43763   0.88027   0.54427   1.000
    O3483   O    0.38659   0.75677   0.61903   1.000
    N3484   N    0.37390   0.94373   0.55512   1.000
    O3485   O    0.38054   0.95532   0.56196   1.000
    O3486   O    0.38060   0.93700   0.54348   1.000
    O3487   O    0.25854   0.88144   0.61514   1.000
    N3488   N    0.62543   0.05672   0.55701   1.000
    O3489   O    0.61868   0.04510   0.56371   1.000
    O3490   O    0.61873   0.06346   0.54532   1.000
    O3491   O    0.74209   0.11896   0.61572   1.000
    N3492   N    0.55676   0.87431   0.55681   1.000
    O3493   O    0.56331   0.88095   0.54503   1.000
    O3494   O    0.54481   0.88073   0.56322   1.000
    O3495   O    0.61800   0.75488   0.61171   1.000
    N3496   N    0.05619   0.62597   0.55656   1.000
    O3497   O    0.06310   0.61948   0.54492   1.000
    O3498   O    0.04452   0.61912   0.56303   1.000
    O3499   O    0.11749   0.74159   0.61744   1.000
    N3500   N    0.05882   0.37456   0.55551   1.000
    O3501   O    0.06548   0.38108   0.54370   1.000
    O3502   O    0.04668   0.38092   0.56169   1.000
    O3503   O    0.11939   0.25642   0.61358   1.000
    N3504   N    0.44354   0.94240   0.62649   1.000
    O3505   O    0.43683   0.95430   0.62015   1.000
    O3506   O    0.45550   0.93617   0.61991   1.000
    O3507   O    0.38304   0.88493   0.74438   1.000
    N3508   N    0.44367   0.94342   0.37389   1.000
    O3509   O    0.45569   0.93719   0.38051   1.000
    O3510   O    0.43690   0.95528   0.38020   1.000
    O3511   O    0.38176   0.88677   0.25642   1.000
    N3512   N    0.37254   0.05564   0.44298   1.000
    O3513   O    0.37900   0.04379   0.43636   1.000
    O3514   O    0.37899   0.06180   0.45506   1.000
    O3515   O    0.25553   0.11448   0.38012   1.000
    N3516   N    0.94479   0.44210   0.62491   1.000
    O3517   O    0.93811   0.45411   0.61870   1.000
    O3518   O    0.95669   0.43585   0.61820   1.000
    O3519   O    0.88397   0.38512   0.74289   1.000
    N3520   N    0.94490   0.55458   0.62617   1.000
    O3521   O    0.95662   0.56118   0.61952   1.000
    O3522   O    0.93812   0.54293   0.61955   1.000
    O3523   O    0.88175   0.61431   0.74129   1.000
    N3524   N    0.55598   0.94404   0.62653   1.000
    O3525   O    0.54420   0.93731   0.62005   1.000
    O3526   O    0.56211   0.95616   0.62011   1.000
    O3527   O    0.61470   0.88333   0.74414   1.000
    N3528   N    0.44234   0.05484   0.62806   1.000
    O3529   O    0.45396   0.06176   0.62150   1.000
    O3530   O    0.43598   0.04303   0.62131   1.000
    O3531   O    0.38322   0.11752   0.74407   1.000
    N3532   N    0.55513   0.05733   0.62716   1.000
    O3533   O    0.56148   0.04545   0.62056   1.000
    O3534   O    0.54296   0.06373   0.62096   1.000
    O3535   O    0.61437   0.11630   0.74476   1.000
    N3536   N    0.05648   0.55460   0.62656   1.000
    O3537   O    0.06344   0.54302   0.61994   1.000
    O3538   O    0.04473   0.56115   0.61981   1.000
    O3539   O    0.11810   0.61582   0.74185   1.000
    N3540   N    0.05688   0.44320   0.62581   1.000
    O3541   O    0.06371   0.45490   0.61928   1.000
    O3542   O    0.04519   0.43665   0.61900   1.000
    O3543   O    0.11971   0.38561   0.74303   1.000
    N3544   N    0.94349   0.62760   0.44513   1.000
    O3545   O    0.95532   0.62098   0.43868   1.000
    O3546   O    0.93674   0.62090   0.45678   1.000
    O3547   O    0.88090   0.74353   0.38393   1.000
    N3548   N    0.05589   0.55836   0.37499   1.000
    O3549   O    0.04409   0.56466   0.38179   1.000
    O3550   O    0.06259   0.54633   0.38114   1.000
    O3551   O    0.11554   0.61548   0.25656   1.000
    N3552   N    0.94435   0.44368   0.37538   1.000
    O3553   O    0.95644   0.43742   0.38183   1.000
    O3554   O    0.93762   0.45556   0.38175   1.000
    O3555   O    0.88416   0.38546   0.25794   1.000
    N3556   N    0.55748   0.87548   0.44443   1.000
    O3557   O    0.54552   0.88178   0.43775   1.000
    O3558   O    0.56371   0.88207   0.45638   1.000
    O3559   O    0.61572   0.75747   0.38475   1.000
    N3560   N    0.55474   0.12548   0.44401   1.000
    O3561   O    0.54288   0.11905   0.43733   1.000
    O3562   O    0.56099   0.11911   0.45614   1.000
    O3563   O    0.61311   0.24245   0.38259   1.000
    N3564   N    0.05610   0.62711   0.44541   1.000
    O3565   O    0.06297   0.62036   0.45700   1.000
    O3566   O    0.04417   0.62061   0.43899   1.000
    O3567   O    0.11960   0.74239   0.38606   1.000
    N3568   N    0.44210   0.12481   0.44431   1.000
    O3569   O    0.45400   0.11854   0.43764   1.000
    O3570   O    0.43571   0.11805   0.45609   1.000
    O3571   O    0.38545   0.24274   0.38254   1.000
    N3572   N    0.05870   0.37430   0.44347   1.000
    O3573   O    0.04658   0.38062   0.43711   1.000
    O3574   O    0.06522   0.38091   0.45526   1.000
    O3575   O    0.11443   0.25423   0.38428   1.000
    N3576   N    0.55486   0.05664   0.37369   1.000
    O3577   O    0.56186   0.04513   0.38047   1.000
    O3578   O    0.54290   0.06299   0.38019   1.000
    O3579   O    0.61866   0.11528   0.25856   1.000
    N3580   N    0.44454   0.87399   0.44310   1.000
    O3581   O    0.45646   0.88068   0.43693   1.000
    O3582   O    0.43785   0.88022   0.45502   1.000
    O3583   O    0.38439   0.75648   0.38469   1.000
    N3584   N    0.94423   0.37435   0.44301   1.000
    O3585   O    0.95642   0.38074   0.43693   1.000
    O3586   O    0.93746   0.38077   0.45481   1.000
    O3587   O    0.88165   0.25711   0.38551   1.000
    N3588   N    0.94492   0.55599   0.37494   1.000
    O3589   O    0.93815   0.54426   0.38149   1.000
    O3590   O    0.95636   0.56285   0.38185   1.000
    O3591   O    0.88188   0.61421   0.25863   1.000
    N3592   N    0.05647   0.44508   0.37336   1.000
    O3593   O    0.06280   0.45701   0.37990   1.000
    O3594   O    0.04500   0.43807   0.38013   1.000
    O3595   O    0.11766   0.38265   0.25812   1.000
    N3596   N    0.12673   0.55592   0.44481   1.000
    O3597   O    0.12017   0.56263   0.45653   1.000
    O3598   O    0.11995   0.54437   0.43803   1.000
    O3599   O    0.24145   0.61903   0.38420   1.000
    N3600   N    0.55608   0.94576   0.37434   1.000
    O3601   O    0.54439   0.93907   0.38095   1.000
    O3602   O    0.56284   0.95739   0.38102   1.000
    O3603   O    0.61891   0.88593   0.25920   1.000
    N3604   N    0.37387   0.94272   0.44307   1.000
    O3605   O    0.38051   0.93634   0.45498   1.000
    O3606   O    0.38012   0.95473   0.43653   1.000
    O3607   O    0.25644   0.88596   0.38049   1.000
    N3608   N    0.62535   0.05824   0.44467   1.000
    O3609   O    0.61870   0.06446   0.45662   1.000
    O3610   O    0.61906   0.04632   0.43804   1.000
    O3611   O    0.74322   0.11411   0.38171   1.000
    N3612   N    0.87283   0.44427   0.44385   1.000
    O3613   O    0.87951   0.45611   0.43742   1.000
    O3614   O    0.87945   0.43744   0.45554   1.000
    O3615   O    0.75690   0.38072   0.38483   1.000
    N3616   N    0.44183   0.05651   0.37348   1.000
    O3617   O    0.45376   0.06306   0.37991   1.000
    O3618   O    0.43556   0.04447   0.37995   1.000
    O3619   O    0.38434   0.11761   0.25498   1.000
    N3620   N    0.12713   0.44431   0.44185   1.000
    O3621   O    0.12035   0.45623   0.43561   1.000
    O3622   O    0.12109   0.43775   0.45397   1.000
    O3623   O    0.24453   0.38296   0.38378   1.000
    N3624   N    0.87420   0.55722   0.44386   1.000
    O3625   O    0.88057   0.54521   0.43738   1.000
    O3626   O    0.88065   0.56351   0.45588   1.000
    O3627   O    0.75608   0.61503   0.38247   1.000
    N3628   N    0.62654   0.94593   0.44558   1.000
    O3629   O    0.61990   0.93930   0.45731   1.000
    O3630   O    0.61990   0.95763   0.43877   1.000
    O3631   O    0.74130   0.88595   0.38189   1.000
loop_
    _geom_bond_atom_site_label_1
    _geom_bond_atom_site_label_2
    _geom_bond_distance
    _geom_bond_site_symmetry_2
    _ccdc_geom_bond_type
    Zr3    O1504     0.69312      .   S
    Zr4    O1504     0.69312      .   S
    Zr3    O1505     0.69784      .   S
    Zr2    O1505     0.69784      .   S
    Zr185  O1506     0.69429      .   S
    Zr184  O1506     0.69429      .   S
    Zr185  O1507     0.69250      .   S
    Zr186  O1507     0.69250      .   S
    Zr187  O1508     0.54079      .   S
    Zr184  O1508     0.54079      .   S
    Zr107  O1509     0.69184      .   S
    Zr108  O1509     0.69184      .   S
    Zr107  O1510     0.69441      .   S
    Zr106  O1510     0.69441      .   S
    Zr705  O1511     0.69386      .   S
    Zr706  O1511     0.69386      .   S
    Zr705  O1512     0.69419      .   S
    Zr704  O1512     0.69419      .   S
    Zr81   O1513     0.69729      .   S
    Zr82   O1513     0.69729      .   S
    Zr81   O1514     0.69323      .   S
    Zr80   O1514     0.69323      .   S
    Zr809  O1515     0.69340      .   S
    Zr810  O1515     0.69340      .   S
    Zr809  O1516     0.69401      .   S
    Zr808  O1516     0.69401      .   S
    Zr627  O1517     0.69517      .   S
    Zr626  O1517     0.69517      .   S
    Zr627  O1518     0.69242      .   S
    Zr628  O1518     0.69242      .   S
    Zr731  O1519     0.69418      .   S
    Zr730  O1519     0.69418      .   S
    Zr731  O1520     0.69736      .   S
    Zr732  O1520     0.69736      .   S
    Zr6    O1521     0.53915      .   S
    Zr4    O1521     0.53915      .   S
    Zr812  O1522     0.53974      .   S
    Zr810  O1522     0.53974      .   S
    Zr708  O1523     0.53994      .   S
    Zr706  O1523     0.53994      .   S
    Zr184  O1524     0.67349      .   S
    Zr183  O1524     0.67349      .   S
    Zr5    O1525     0.54029      .   S
    Zr2    O1525     0.54029      .   S
    Zr110  O1526     0.53990      .   S
    Zr108  O1526     0.53990      .   S
    Zr84   O1527     0.54037      .   S
    Zr82   O1527     0.54037      .   S
    Zr629  O1528     0.54038      .   S
    Zr626  O1528     0.54038      .   S
    Zr109  O1529     0.54001      .   S
    Zr106  O1529     0.54001      .   S
    Zr4    O1530     0.67033      .   S
    Zr0    O1530     0.67033      .   S
    Zr733  O1531     0.53986      .   S
    Zr730  O1531     0.53986      .   S
    Zr83   O1532     0.53885      .   S
    Zr80   O1532     0.53885      .   S
    Zr630  O1533     0.54010      .   S
    Zr628  O1533     0.54010      .   S
    Zr707  O1534     0.54002      .   S
    Zr704  O1534     0.54002      .   S
    Zr2    O1535     0.67560      .   S
    Zr1    O1535     0.67560      .   S
    Zr734  O1536     0.54010      .   S
    Zr732  O1536     0.54010      .   S
    Zr811  O1537     0.53990      .   S
    Zr808  O1537     0.53990      .   S
    Zr810  O1538     0.67244      .   S
    Zr806  O1538     0.67244      .   S
    Zr706  O1539     0.67331      .   S
    Zr702  O1539     0.67331      .   S
    Zr108  O1540     0.67142      .   S
    Zr104  O1540     0.67142      .   S
    Zr82   O1541     0.67531      .   S
    Zr78   O1541     0.67531      .   S
    Zr106  O1542     0.67333      .   S
    Zr105  O1542     0.67333      .   S
    Zr626  O1543     0.67476      .   S
    Zr625  O1543     0.67476      .   S
    Zr80   O1544     0.67088      .   S
    Zr79   O1544     0.67088      .   S
    Zr704  O1545     0.67398      .   S
    Zr703  O1545     0.67398      .   S
    Zr628  O1546     0.67145      .   S
    Zr624  O1546     0.67145      .   S
    Zr730  O1547     0.67122      .   S
    Zr729  O1547     0.67122      .   S
    Zr808  O1548     0.67342      .   S
    Zr807  O1548     0.67342      .   S
    Zr732  O1549     0.67439      .   S
    Zr728  O1549     0.67439      .   S
    Zr186  O1550     0.54049      .   S
    Zr188  O1550     0.54049      .   S
    Zr186  O1551     0.67170      .   S
    Zr182  O1551     0.67170      .   S
    Zr183  O1552     0.65635      .   S
    Zr182  O1552     0.65635      .   S
    Zr183  O1553     0.97264      .   S
    Zr189  O1553     0.97264      .   S
    Zr0    O1554     0.65640      .   S
    Zr1    O1554     0.65640      .   S
    Zr0    O1555     0.96722      .   S
    Zr8    O1555     0.96722      .   S
    Zr1    O1556     0.97982      .   S
    Zr7    O1556     0.97982      .   S
    Zr104  O1557     0.65614      .   S
    Zr105  O1557     0.65614      .   S
    Zr104  O1558     0.96809      .   S
    Zr112  O1558     0.96809      .   S
    Zr702  O1559     0.65707      .   S
    Zr703  O1559     0.65707      .   S
    Zr702  O1560     0.97470      .   S
    Zr710  O1560     0.97470      .   S
    Zr806  O1561     0.65693      .   S
    Zr807  O1561     0.65693      .   S
    Zr806  O1562     0.97404      .   S
    Zr814  O1562     0.97404      .   S
    Zr78   O1563     0.65622      .   S
    Zr79   O1563     0.65622      .   S
    Zr78   O1564     0.98164      .   S
    Zr86   O1564     0.98164      .   S
    Zr105  O1565     0.97233      .   S
    Zr111  O1565     0.97233      .   S
    Zr79   O1566     0.96871      .   S
    Zr85   O1566     0.96871      .   S
    Zr703  O1567     0.97496      .   S
    Zr709  O1567     0.97496      .   S
    Zr729  O1568     0.65617      .   S
    Zr728  O1568     0.65617      .   S
    Zr729  O1569     0.96591      .   S
    Zr735  O1569     0.96591      .   S
    Zr625  O1570     0.65708      .   S
    Zr624  O1570     0.65708      .   S
    Zr625  O1571     0.97911      .   S
    Zr631  O1571     0.97911      .   S
    Zr728  O1572     0.97957      .   S
    Zr736  O1572     0.97957      .   S
    Zr624  O1573     0.97239      .   S
    Zr632  O1573     0.97239      .   S
    Zr807  O1574     0.97322      .   S
    Zr813  O1574     0.97322      .   S
    Zr182  O1575     0.96937      .   S
    Zr190  O1575     0.96937      .   S
    Zr189  O1576     0.97212      .   S
    Zr192  O1576     0.97212      .   S
    Zr8    O1577     0.97922      .   S
    Zr18   O1577     0.97922      .   S
    Zr735  O1578     0.96650      .   S
    Zr738  O1578     0.96650      .   S
    Zr814  O1579     1.03252      .   S
    Zr830  O1579     1.03252      .   S
    Zr814  O1580     0.98562      .   S
    Zr824  O1580     0.98562      .   S
    Zr814  O1581     1.03280      .   S
    Zr831  O1581     1.03280      .   S
    Zr710  O1582     1.03171      .   S
    Zr726  O1582     1.03171      .   S
    Zr710  O1583     0.98684      .   S
    Zr720  O1583     0.98684      .   S
    Zr710  O1584     1.03340      .   S
    Zr727  O1584     1.03340      .   S
    Zr86   O1585     1.02841      .   S
    Zr102  O1585     1.02841      .   S
    Zr86   O1586     0.99282      .   S
    Zr96   O1586     0.99282      .   S
    Zr86   O1587     1.02955      .   S
    Zr103  O1587     1.02955      .   S
    Zr112  O1588     0.97891      .   S
    Zr122  O1588     0.97891      .   S
    Zr85   O1589     0.96929      .   S
    Zr88   O1589     0.96929      .   S
    Zr111  O1590     0.97065      .   S
    Zr114  O1590     0.97065      .   S
    Zr632  O1591     1.02686      .   S
    Zr648  O1591     1.02686      .   S
    Zr632  O1592     0.98498      .   S
    Zr642  O1592     0.98498      .   S
    Zr632  O1593     1.02782      .   S
    Zr649  O1593     1.02782      .   S
    Zr7    O1594     0.97893      .   S
    Zr10   O1594     0.97893      .   S
    Zr736  O1595     1.03120      .   S
    Zr752  O1595     1.03120      .   S
    Zr736  O1596     1.03204      .   S
    Zr753  O1596     1.03204      .   S
    Zr736  O1597     0.99083      .   S
    Zr746  O1597     0.99083      .   S
    Zr631  O1598     0.97976      .   S
    Zr634  O1598     0.97976      .   S
    Zr709  O1599     0.97499      .   S
    Zr712  O1599     0.97499      .   S
    Zr813  O1600     0.97361      .   S
    Zr816  O1600     0.97361      .   S
    Zr206  O1601     1.02124      .   S
    Zr190  O1601     1.02124      .   S
    Zr190  O1602     0.98177      .   S
    Zr200  O1602     0.98177      .   S
    Zr24   O1603     1.02803      .   S
    Zr9    O1603     1.02803      .   S
    Zr128  O1604     1.02493      .   S
    Zr113  O1604     1.02493      .   S
    Zr198  O1605     0.53992      .   S
    Zr196  O1605     0.53992      .   S
    Zr828  O1606     0.54018      .   S
    Zr825  O1606     0.54018      .   S
    Zr22   O1607     0.53964      .   S
    Zr19   O1607     0.53964      .   S
    Zr724  O1608     0.54005      .   S
    Zr721  O1608     0.54005      .   S
    Zr744  O1609     0.53995      .   S
    Zr742  O1609     0.53995      .   S
    Zr94   O1610     0.53924      .   S
    Zr92   O1610     0.53924      .   S
    Zr120  O1611     0.53980      .   S
    Zr118  O1611     0.53980      .   S
    Zr126  O1612     0.53972      .   S
    Zr123  O1612     0.53972      .   S
    Zr100  O1613     0.54034      .   S
    Zr97   O1613     0.54034      .   S
    Zr646  O1614     0.54010      .   S
    Zr643  O1614     0.54010      .   S
    Zr192  O1615     0.67219      .   S
    Zr196  O1615     0.67219      .   S
    Zr192  O1616     0.65688      .   S
    Zr193  O1616     0.65688      .   S
    Zr16   O1617     0.54019      .   S
    Zr14   O1617     0.54019      .   S
    Zr640  O1618     0.54010      .   S
    Zr638  O1618     0.54010      .   S
    Zr750  O1619     0.54036      .   S
    Zr747  O1619     0.54036      .   S
    Zr718  O1620     0.53991      .   S
    Zr716  O1620     0.53991      .   S
    Zr822  O1621     0.53990      .   S
    Zr820  O1621     0.53990      .   S
    Zr824  O1622     0.67328      .   S
    Zr825  O1622     0.67328      .   S
    Zr824  O1623     0.65945      .   S
    Zr823  O1623     0.65945      .   S
    Zr18   O1624     0.67204      .   S
    Zr19   O1624     0.67204      .   S
    Zr18   O1625     0.65862      .   S
    Zr17   O1625     0.65862      .   S
    Zr720  O1626     0.67396      .   S
    Zr721  O1626     0.67396      .   S
    Zr720  O1627     0.65943      .   S
    Zr719  O1627     0.65943      .   S
    Zr88   O1628     0.67196      .   S
    Zr92   O1628     0.67196      .   S
    Zr88   O1629     0.65602      .   S
    Zr89   O1629     0.65602      .   S
    Zr196  O1630     0.69367      .   S
    Zr195  O1630     0.69367      .   S
    Zr738  O1631     0.67178      .   S
    Zr742  O1631     0.67178      .   S
    Zr738  O1632     0.65581      .   S
    Zr739  O1632     0.65581      .   S
    Zr96   O1633     0.67526      .   S
    Zr97   O1633     0.67526      .   S
    Zr96   O1634     0.66026      .   S
    Zr95   O1634     0.66026      .   S
    Zr114  O1635     0.67234      .   S
    Zr118  O1635     0.67234      .   S
    Zr114  O1636     0.65734      .   S
    Zr115  O1636     0.65734      .   S
    Zr122  O1637     0.67098      .   S
    Zr123  O1637     0.67098      .   S
    Zr122  O1638     0.65961      .   S
    Zr121  O1638     0.65961      .   S
    Zr25   O1639     1.02931      .   S
    Zr9    O1639     1.02931      .   S
    Zr825  O1640     0.69315      .   S
    Zr826  O1640     0.69315      .   S
    Zr10   O1641     0.67488      .   S
    Zr14   O1641     0.67488      .   S
    Zr10   O1642     0.65697      .   S
    Zr11   O1642     0.65697      .   S
    Zr642  O1643     0.67438      .   S
    Zr643  O1643     0.67438      .   S
    Zr642  O1644     0.65859      .   S
    Zr641  O1644     0.65859      .   S
    Zr19   O1645     0.69178      .   S
    Zr20   O1645     0.69178      .   S
    Zr721  O1646     0.69367      .   S
    Zr722  O1646     0.69367      .   S
    Zr634  O1647     0.67553      .   S
    Zr638  O1647     0.67553      .   S
    Zr634  O1648     0.65654      .   S
    Zr635  O1648     0.65654      .   S
    Zr92   O1649     0.69230      .   S
    Zr91   O1649     0.69230      .   S
    Zr746  O1650     0.67428      .   S
    Zr747  O1650     0.67428      .   S
    Zr746  O1651     0.66009      .   S
    Zr745  O1651     0.66009      .   S
    Zr129  O1652     1.02709      .   S
    Zr113  O1652     1.02709      .   S
    Zr712  O1653     0.67380      .   S
    Zr716  O1653     0.67380      .   S
    Zr712  O1654     0.65673      .   S
    Zr713  O1654     0.65673      .   S
    Zr742  O1655     0.69442      .   S
    Zr741  O1655     0.69442      .   S
    Zr816  O1656     0.67338      .   S
    Zr820  O1656     0.67338      .   S
    Zr816  O1657     0.65622      .   S
    Zr817  O1657     0.65622      .   S
    Zr207  O1658     0.99897      .   S
    Zr191  O1658     0.99897      .   S
    Zr118  O1659     0.69281      .   S
    Zr117  O1659     0.69281      .   S
    Zr204  O1660     0.54027      .   S
    Zr201  O1660     0.54027      .   S
    Zr123  O1661     0.69087      .   S
    Zr124  O1661     0.69087      .   S
    Zr97   O1662     0.69482      .   S
    Zr98   O1662     0.69482      .   S
    Zr200  O1663     0.67138      .   S
    Zr201  O1663     0.67138      .   S
    Zr200  O1664     0.65918      .   S
    Zr199  O1664     0.65918      .   S
    Zr643  O1665     0.69289      .   S
    Zr644  O1665     0.69289      .   S
    Zr14   O1666     0.69705      .   S
    Zr13   O1666     0.69705      .   S
    Zr747  O1667     0.69409      .   S
    Zr748  O1667     0.69409      .   S
    Zr638  O1668     0.69787      .   S
    Zr637  O1668     0.69787      .   S
    Zr716  O1669     0.69444      .   S
    Zr715  O1669     0.69444      .   S
    Zr820  O1670     0.69571      .   S
    Zr819  O1670     0.69571      .   S
    Zr201  O1671     0.69250      .   S
    Zr202  O1671     0.69250      .   S
    Zr193  O1672     0.97852      .   S
    Zr191  O1672     0.97852      .   S
    Zr193  O1673     0.67355      .   S
    Zr194  O1673     0.67355      .   S
    Zr191  O1674     0.98783      .   S
    Zr199  O1674     0.98783      .   S
    Zr823  O1675     0.98530      .   S
    Zr815  O1675     0.98530      .   S
    Zr823  O1676     0.67281      .   S
    Zr827  O1676     0.67281      .   S
    Zr89   O1677     0.97340      .   S
    Zr87   O1677     0.97340      .   S
    Zr89   O1678     0.67384      .   S
    Zr90   O1678     0.67384      .   S
    Zr199  O1679     0.67433      .   S
    Zr203  O1679     0.67433      .   S
    Zr719  O1680     0.98502      .   S
    Zr711  O1680     0.98502      .   S
    Zr719  O1681     0.67296      .   S
    Zr723  O1681     0.67296      .   S
    Zr17   O1682     0.98405      .   S
    Zr9    O1682     0.98405      .   S
    Zr17   O1683     0.67378      .   S
    Zr21   O1683     0.67378      .   S
    Zr95   O1684     0.98404      .   S
    Zr87   O1684     0.98404      .   S
    Zr95   O1685     0.67185      .   S
    Zr99   O1685     0.67185      .   S
    Zr115  O1686     0.97853      .   S
    Zr113  O1686     0.97853      .   S
    Zr115  O1687     0.67356      .   S
    Zr116  O1687     0.67356      .   S
    Zr739  O1688     0.97705      .   S
    Zr737  O1688     0.97705      .   S
    Zr739  O1689     0.67337      .   S
    Zr740  O1689     0.67337      .   S
    Zr11   O1690     0.97093      .   S
    Zr9    O1690     0.97093      .   S
    Zr11   O1691     0.67135      .   S
    Zr12   O1691     0.67135      .   S
    Zr641  O1692     0.97918      .   S
    Zr633  O1692     0.97918      .   S
    Zr641  O1693     0.67212      .   S
    Zr645  O1693     0.67212      .   S
    Zr121  O1694     0.99060      .   S
    Zr113  O1694     0.99060      .   S
    Zr121  O1695     0.67487      .   S
    Zr125  O1695     0.67487      .   S
    Zr815  O1696     0.97365      .   S
    Zr817  O1696     0.97365      .   S
    Zr745  O1697     0.98706      .   S
    Zr737  O1697     0.98706      .   S
    Zr745  O1698     0.67285      .   S
    Zr749  O1698     0.67285      .   S
    Zr817  O1699     0.67238      .   S
    Zr818  O1699     0.67238      .   S
    Zr635  O1700     0.96677      .   S
    Zr633  O1700     0.96677      .   S
    Zr635  O1701     0.67032      .   S
    Zr636  O1701     0.67032      .   S
    Zr711  O1702     0.97246      .   S
    Zr713  O1702     0.97246      .   S
    Zr713  O1703     0.67290      .   S
    Zr714  O1703     0.67290      .   S
    Zr195  O1704     0.69553      .   S
    Zr194  O1704     0.69553      .   S
    Zr826  O1705     0.69330      .   S
    Zr827  O1705     0.69330      .   S
    Zr91   O1706     0.69359      .   S
    Zr90   O1706     0.69359      .   S
    Zr722  O1707     0.69321      .   S
    Zr723  O1707     0.69321      .   S
    Zr20   O1708     0.69354      .   S
    Zr21   O1708     0.69354      .   S
    Zr117  O1709     0.69439      .   S
    Zr116  O1709     0.69439      .   S
    Zr741  O1710     0.69638      .   S
    Zr740  O1710     0.69638      .   S
    Zr98   O1711     0.69206      .   S
    Zr99   O1711     0.69206      .   S
    Zr644  O1712     0.69100      .   S
    Zr645  O1712     0.69100      .   S
    Zr124  O1713     0.69456      .   S
    Zr125  O1713     0.69456      .   S
    Zr13   O1714     0.69397      .   S
    Zr12   O1714     0.69397      .   S
    Zr194  O1715     0.54035      .   S
    Zr197  O1715     0.54035      .   S
    Zr202  O1716     0.69557      .   S
    Zr203  O1716     0.69557      .   S
    Zr748  O1717     0.69311      .   S
    Zr749  O1717     0.69311      .   S
    Zr637  O1718     0.69313      .   S
    Zr636  O1718     0.69313      .   S
    Zr819  O1719     0.69483      .   S
    Zr818  O1719     0.69483      .   S
    Zr715  O1720     0.69320      .   S
    Zr714  O1720     0.69320      .   S
    Zr203  O1721     0.54029      .   S
    Zr205  O1721     0.54029      .   S
    Zr827  O1722     0.53972      .   S
    Zr829  O1722     0.53972      .   S
    Zr90   O1723     0.54031      .   S
    Zr93   O1723     0.54031      .   S
    Zr723  O1724     0.54007      .   S
    Zr725  O1724     0.54007      .   S
    Zr21   O1725     0.53995      .   S
    Zr23   O1725     0.53995      .   S
    Zr99   O1726     0.53964      .   S
    Zr101  O1726     0.53964      .   S
    Zr116  O1727     0.54053      .   S
    Zr119  O1727     0.54053      .   S
    Zr645  O1728     0.53984      .   S
    Zr647  O1728     0.53984      .   S
    Zr740  O1729     0.54000      .   S
    Zr743  O1729     0.54000      .   S
    Zr12   O1730     0.53976      .   S
    Zr15   O1730     0.53976      .   S
    Zr125  O1731     0.54033      .   S
    Zr127  O1731     0.54033      .   S
    Zr749  O1732     0.53983      .   S
    Zr751  O1732     0.53983      .   S
    Zr818  O1733     0.53990      .   S
    Zr821  O1733     0.53990      .   S
    Zr636  O1734     0.53965      .   S
    Zr639  O1734     0.53965      .   S
    Zr714  O1735     0.53983      .   S
    Zr717  O1735     0.53983      .   S
    Zr1226 O1736     0.63557      .   S
    Zr1227 O1736     0.63557      .   S
    Zr1226 O1737     0.92928      .   S
    Zr1245 O1737     0.92928      .   S
    Zr1187 O1738     0.63517      .   S
    Zr1188 O1738     0.63517      .   S
    Zr1187 O1739     0.92751      .   S
    Zr1245 O1739     0.92751  1_565   S
    Zr1022 O1740     0.63573      .   S
    Zr1023 O1740     0.63573      .   S
    Zr1022 O1741     0.92762      .   S
    Zr1079 O1741     0.92762      .   S
    Zr1205 O1742     0.63526      .   S
    Zr1206 O1742     0.63526      .   S
    Zr1205 O1743     0.92882      .   S
    Zr1243 O1743     0.92882      .   S
    Zr1172 O1744     0.63588      .   S
    Zr1173 O1744     0.63588      .   S
    Zr1172 O1745     0.92847      .   S
    Zr1243 O1745     0.92847      .   S
    Zr1055 O1746     0.63464      .   S
    Zr1056 O1746     0.63464      .   S
    Zr1055 O1747     0.92596      .   S
    Zr1079 O1747     0.92596      .   S
    Zr1040 O1748     0.63498      .   S
    Zr1041 O1748     0.63498      .   S
    Zr1040 O1749     0.92766      .   S
    Zr1073 O1749     0.92766      .   S
    Zr1169 O1750     0.63533      .   S
    Zr1170 O1750     0.63533      .   S
    Zr1169 O1751     0.92622      .   S
    Zr1241 O1751     0.92622      .   S
    Zr1223 O1752     0.63550      .   S
    Zr1224 O1752     0.63550      .   S
    Zr1223 O1753     0.92874      .   S
    Zr1247 O1753     0.92874      .   S
    Zr1208 O1754     0.63509      .   S
    Zr1209 O1754     0.63509      .   S
    Zr1208 O1755     0.92534      .   S
    Zr1241 O1755     0.92534      .   S
    Zr1019 O1756     0.63548      .   S
    Zr1020 O1756     0.63548      .   S
    Zr1019 O1757     0.92731      .   S
    Zr1077 O1757     0.92731      .   S
    Zr1058 O1758     0.63586      .   S
    Zr1059 O1758     0.63586      .   S
    Zr1058 O1759     0.93051      .   S
    Zr1077 O1759     0.93051      .   S
    Zr1190 O1760     0.63531      .   S
    Zr1191 O1760     0.63531      .   S
    Zr1190 O1761     0.92833      .   S
    Zr1247 O1761     0.92833  1_545   S
    Zr1001 O1762     0.63596      .   S
    Zr1002 O1762     0.63596      .   S
    Zr1001 O1763     0.92740      .   S
    Zr1073 O1763     0.92740  1_455   S
    Zr1004 O1764     0.63471      .   S
    Zr1005 O1764     0.63471      .   S
    Zr1004 O1765     0.92193      .   S
    Zr1075 O1765     0.92193  1_655   S
    Zr1037 O1766     0.63569      .   S
    Zr1038 O1766     0.63569      .   S
    Zr1037 O1767     0.92788      .   S
    Zr1075 O1767     0.92788      .   S
    Zr1206 O1768     0.63588      .   S
    Zr1204 O1768     0.63588      .   S
    Zr1188 O1769     0.63494      .   S
    Zr1186 O1769     0.63494      .   S
    Zr1227 O1770     0.63525      .   S
    Zr1225 O1770     0.63525      .   S
    Zr1023 O1771     0.63501      .   S
    Zr1021 O1771     0.63501      .   S
    Zr1173 O1772     0.63463      .   S
    Zr1171 O1772     0.63463      .   S
    Zr1041 O1773     0.63622      .   S
    Zr1039 O1773     0.63622      .   S
    Zr1056 O1774     0.63588      .   S
    Zr1054 O1774     0.63588      .   S
    Zr1170 O1775     0.63545      .   S
    Zr1168 O1775     0.63545      .   S
    Zr1224 O1776     0.63508      .   S
    Zr1222 O1776     0.63508      .   S
    Zr1209 O1777     0.63506      .   S
    Zr1207 O1777     0.63506      .   S
    Zr1191 O1778     0.63517      .   S
    Zr1189 O1778     0.63517      .   S
    Zr1020 O1779     0.63512      .   S
    Zr1018 O1779     0.63512      .   S
    Zr1059 O1780     0.63533      .   S
    Zr1057 O1780     0.63533      .   S
    Zr1002 O1781     0.63489      .   S
    Zr1000 O1781     0.63489      .   S
    Zr1005 O1782     0.63563      .   S
    Zr1003 O1782     0.63563      .   S
    Zr1038 O1783     0.63461      .   S
    Zr1036 O1783     0.63461      .   S
    Zr1245 O1784     0.92906  1_565   S
    Zr1214 O1784     0.92906      .   S
    Zr1245 O1785     0.92808      .   S
    Zr1175 O1785     0.92808      .   S
    Zr1079 O1786     0.92555      .   S
    Zr1043 O1786     0.92555      .   S
    Zr1079 O1787     0.92793      .   S
    Zr1010 O1787     0.92793      .   S
    Zr1243 O1788     0.92841      .   S
    Zr1229 O1788     0.92841      .   S
    Zr1243 O1789     0.92861      .   S
    Zr1196 O1789     0.92861      .   S
    Zr1241 O1790     0.92669      .   S
    Zr1193 O1790     0.92669      .   S
    Zr1241 O1791     0.92575      .   S
    Zr1232 O1791     0.92575      .   S
    Zr1077 O1792     0.93049      .   S
    Zr1046 O1792     0.93049      .   S
    Zr1077 O1793     0.92770      .   S
    Zr1007 O1793     0.92770      .   S
    Zr1073 O1794     0.92846      .   S
    Zr1025 O1794     0.92846      .   S
    Zr1073 O1795     0.92703  1_455   S
    Zr1064 O1795     0.92703      .   S
    Zr1247 O1796     0.92854      .   S
    Zr1178 O1796     0.92854      .   S
    Zr1247 O1797     0.92920  1_545   S
    Zr1211 O1797     0.92920      .   S
    Zr1075 O1798     0.92260      .   S
    Zr1028 O1798     0.92260      .   S
    Zr1075 O1799     0.92819  1_655   S
    Zr1061 O1799     0.92819      .   S
    Zr1204 O1800     0.92828      .   S
    Zr1242 O1800     0.92828      .   S
    Zr1225 O1801     0.92594      .   S
    Zr1244 O1801     0.92594      .   S
    Zr1186 O1802     0.92552      .   S
    Zr1244 O1802     0.92552  1_565   S
    Zr1171 O1803     0.92342      .   S
    Zr1242 O1803     0.92342      .   S
    Zr1021 O1804     0.92485      .   S
    Zr1078 O1804     0.92485      .   S
    Zr1054 O1805     0.92818      .   S
    Zr1078 O1805     0.92818      .   S
    Zr1039 O1806     0.92922      .   S
    Zr1072 O1806     0.92922      .   S
    Zr1168 O1807     0.92820      .   S
    Zr1240 O1807     0.92820      .   S
    Zr1222 O1808     0.92499      .   S
    Zr1246 O1808     0.92499      .   S
    Zr1207 O1809     0.92588      .   S
    Zr1240 O1809     0.92588      .   S
    Zr1189 O1810     0.92527      .   S
    Zr1246 O1810     0.92527  1_545   S
    Zr1057 O1811     0.92736      .   S
    Zr1076 O1811     0.92736      .   S
    Zr1018 O1812     0.92607      .   S
    Zr1076 O1812     0.92607      .   S
    Zr1000 O1813     0.92599      .   S
    Zr1072 O1813     0.92599  1_455   S
    Zr1003 O1814     0.92895      .   S
    Zr1074 O1814     0.92895  1_655   S
    Zr1036 O1815     0.92503      .   S
    Zr1074 O1815     0.92503      .   S
    Zr1043 O1816     0.63516      .   S
    Zr1044 O1816     0.63516      .   S
    Zr1214 O1817     0.63550      .   S
    Zr1215 O1817     0.63550      .   S
    Zr1175 O1818     0.63522      .   S
    Zr1176 O1818     0.63522      .   S
    Zr1229 O1819     0.63548      .   S
    Zr1230 O1819     0.63548      .   S
    Zr1010 O1820     0.63564      .   S
    Zr1011 O1820     0.63564      .   S
    Zr1046 O1821     0.63574      .   S
    Zr1047 O1821     0.63574      .   S
    Zr1025 O1822     0.63524      .   S
    Zr1026 O1822     0.63524      .   S
    Zr1193 O1823     0.63507      .   S
    Zr1194 O1823     0.63507      .   S
    Zr1007 O1824     0.63540      .   S
    Zr1008 O1824     0.63540      .   S
    Zr1196 O1825     0.63565      .   S
    Zr1197 O1825     0.63565      .   S
    Zr1232 O1826     0.63537      .   S
    Zr1233 O1826     0.63537      .   S
    Zr1064 O1827     0.63560      .   S
    Zr1065 O1827     0.63560      .   S
    Zr1178 O1828     0.63563      .   S
    Zr1179 O1828     0.63563      .   S
    Zr1211 O1829     0.63547      .   S
    Zr1212 O1829     0.63547      .   S
    Zr1028 O1830     0.63451      .   S
    Zr1029 O1830     0.63451      .   S
    Zr1061 O1831     0.63578      .   S
    Zr1062 O1831     0.63578      .   S
    Zr1244 O1832     0.92549  1_565   S
    Zr1213 O1832     0.92549      .   S
    Zr1244 O1833     0.92531      .   S
    Zr1174 O1833     0.92531      .   S
    Zr1242 O1834     0.92836      .   S
    Zr1228 O1834     0.92836      .   S
    Zr1242 O1835     0.92323      .   S
    Zr1195 O1835     0.92323      .   S
    Zr1078 O1836     0.92807      .   S
    Zr1042 O1836     0.92807      .   S
    Zr1078 O1837     0.92456      .   S
    Zr1009 O1837     0.92456      .   S
    Zr1240 O1838     0.92777      .   S
    Zr1192 O1838     0.92777      .   S
    Zr1240 O1839     0.92533      .   S
    Zr1231 O1839     0.92533      .   S
    Zr1072 O1840     0.92636      .   S
    Zr1024 O1840     0.92636      .   S
    Zr1072 O1841     0.92984  1_455   S
    Zr1063 O1841     0.92984      .   S
    Zr1246 O1842     0.92557      .   S
    Zr1177 O1842     0.92557      .   S
    Zr1246 O1843     0.92448  1_545   S
    Zr1210 O1843     0.92448      .   S
    Zr1076 O1844     0.92628      .   S
    Zr1006 O1844     0.92628      .   S
    Zr1076 O1845     0.92686      .   S
    Zr1045 O1845     0.92686      .   S
    Zr1074 O1846     0.92897      .   S
    Zr1027 O1846     0.92897      .   S
    Zr1074 O1847     0.92491  1_655   S
    Zr1060 O1847     0.92491      .   S
    Zr1044 O1848     0.63567      .   S
    Zr1042 O1848     0.63567      .   S
    Zr1215 O1849     0.63501      .   S
    Zr1213 O1849     0.63501      .   S
    Zr1176 O1850     0.63534      .   S
    Zr1174 O1850     0.63534      .   S
    Zr1230 O1851     0.63534      .   S
    Zr1228 O1851     0.63534      .   S
    Zr1026 O1852     0.63551      .   S
    Zr1024 O1852     0.63551      .   S
    Zr1197 O1853     0.63478      .   S
    Zr1195 O1853     0.63478      .   S
    Zr1233 O1854     0.63486      .   S
    Zr1231 O1854     0.63486      .   S
    Zr1047 O1855     0.63535      .   S
    Zr1045 O1855     0.63535      .   S
    Zr1194 O1856     0.63590      .   S
    Zr1192 O1856     0.63590      .   S
    Zr1008 O1857     0.63522      .   S
    Zr1006 O1857     0.63522      .   S
    Zr1011 O1858     0.63482      .   S
    Zr1009 O1858     0.63482      .   S
    Zr1065 O1859     0.63559      .   S
    Zr1063 O1859     0.63559      .   S
    Zr1179 O1860     0.63522      .   S
    Zr1177 O1860     0.63522      .   S
    Zr1212 O1861     0.63508      .   S
    Zr1210 O1861     0.63508      .   S
    Zr1029 O1862     0.63551      .   S
    Zr1027 O1862     0.63551      .   S
    Zr1062 O1863     0.63488      .   S
    Zr1060 O1863     0.63488      .   S
    Zr1035 O1864     0.63562      .   S
    Zr1034 O1864     0.63562      .   S
    Zr1035 O1865     0.63550      .   S
    Zr1033 O1865     0.63550      .   S
    Zr1014 O1866     0.63589      .   S
    Zr1013 O1866     0.63589      .   S
    Zr1014 O1867     0.63536      .   S
    Zr1012 O1867     0.63536      .   S
    Zr1239 O1868     0.63547      .   S
    Zr1237 O1868     0.63547      .   S
    Zr1239 O1869     0.63529      .   S
    Zr1238 O1869     0.63529      .   S
    Zr1182 O1870     0.63551      .   S
    Zr1181 O1870     0.63551      .   S
    Zr1182 O1871     0.63539      .   S
    Zr1180 O1871     0.63539      .   S
    Zr1053 O1872     0.63483      .   S
    Zr1051 O1872     0.63483      .   S
    Zr1053 O1873     0.63506      .   S
    Zr1052 O1873     0.63506      .   S
    Zr1071 O1874     0.63567      .   S
    Zr1070 O1874     0.63567      .   S
    Zr1071 O1875     0.63511      .   S
    Zr1069 O1875     0.63511      .   S
    Zr1200 O1876     0.63604      .   S
    Zr1198 O1876     0.63604      .   S
    Zr1200 O1877     0.63461      .   S
    Zr1199 O1877     0.63461      .   S
    Zr1218 O1878     0.63534      .   S
    Zr1217 O1878     0.63534      .   S
    Zr1218 O1879     0.63479      .   S
    Zr1216 O1879     0.63479      .   S
    Zr1032 O1880     0.63469      .   S
    Zr1030 O1880     0.63469      .   S
    Zr1032 O1881     0.63596      .   S
    Zr1031 O1881     0.63596      .   S
    Zr1068 O1882     0.63565      .   S
    Zr1067 O1882     0.63565      .   S
    Zr1068 O1883     0.63487      .   S
    Zr1066 O1883     0.63487      .   S
    Zr1050 O1884     0.63576      .   S
    Zr1048 O1884     0.63576      .   S
    Zr1050 O1885     0.63512      .   S
    Zr1049 O1885     0.63512      .   S
    Zr1221 O1886     0.63446      .   S
    Zr1219 O1886     0.63446      .   S
    Zr1221 O1887     0.63566      .   S
    Zr1220 O1887     0.63566      .   S
    Zr1185 O1888     0.63479      .   S
    Zr1183 O1888     0.63479      .   S
    Zr1185 O1889     0.63555      .   S
    Zr1184 O1889     0.63555      .   S
    Zr1017 O1890     0.63523      .   S
    Zr1016 O1890     0.63523      .   S
    Zr1017 O1891     0.63531      .   S
    Zr1015 O1891     0.63531      .   S
    Zr1236 O1892     0.63559      .   S
    Zr1234 O1892     0.63559      .   S
    Zr1236 O1893     0.63520      .   S
    Zr1235 O1893     0.63520      .   S
    Zr1203 O1894     0.63519      .   S
    Zr1201 O1894     0.63519      .   S
    Zr1203 O1895     0.63510      .   S
    Zr1202 O1895     0.63510      .   S
    Zr1034 O1896     0.92973      .   S
    Zr1159 O1896     0.92973      .   S
    Zr1033 O1897     0.92632      .   S
    Zr1158 O1897     0.92632      .   S
    Zr1013 O1898     0.93048      .   S
    Zr1157 O1898     0.93048      .   S
    Zr1012 O1899     0.92743      .   S
    Zr1156 O1899     0.92743      .   S
    Zr1237 O1900     0.92710      .   S
    Zr1324 O1900     0.92710      .   S
    Zr1051 O1901     0.92538      .   S
    Zr1158 O1901     0.92538      .   S
    Zr1052 O1902     0.92608      .   S
    Zr1159 O1902     0.92608      .   S
    Zr1181 O1903     0.92980      .   S
    Zr1325 O1903     0.92980      .   S
    Zr1238 O1904     0.92568      .   S
    Zr1325 O1904     0.92568      .   S
    Zr1180 O1905     0.92640      .   S
    Zr1324 O1905     0.92640      .   S
    Zr1070 O1906     0.92997      .   S
    Zr1157 O1906     0.92997      .   S
    Zr1069 O1907     0.92472      .   S
    Zr1156 O1907     0.92472      .   S
    Zr1198 O1908     0.93001      .   S
    Zr1328 O1908     0.93001      .   S
    Zr1199 O1909     0.92282      .   S
    Zr1329 O1909     0.92282      .   S
    Zr1217 O1910     0.92457      .   S
    Zr1329 O1910     0.92457      .   S
    Zr1216 O1911     0.92619      .   S
    Zr1328 O1911     0.92619      .   S
    Zr1030 O1912     0.92418      .   S
    Zr1160 O1912     0.92418      .   S
    Zr1048 O1913     0.92687      .   S
    Zr1160 O1913     0.92687      .   S
    Zr1067 O1914     0.92967      .   S
    Zr1163 O1914     0.92967      .   S
    Zr1031 O1915     0.92984      .   S
    Zr1161 O1915     0.92984      .   S
    Zr1066 O1916     0.92384      .   S
    Zr1162 O1916     0.92384      .   S
    Zr1016 O1917     0.92791      .   S
    Zr1163 O1917     0.92791      .   S
    Zr1015 O1918     0.92636      .   S
    Zr1162 O1918     0.92636      .   S
    Zr1219 O1919     0.92374      .   S
    Zr1326 O1919     0.92374      .   S
    Zr1183 O1920     0.92662      .   S
    Zr1330 O1920     0.92662      .   S
    Zr1049 O1921     0.92772      .   S
    Zr1161 O1921     0.92772      .   S
    Zr1220 O1922     0.92566      .   S
    Zr1327 O1922     0.92566      .   S
    Zr1234 O1923     0.92790      .   S
    Zr1330 O1923     0.92790      .   S
    Zr1184 O1924     0.92652      .   S
    Zr1331 O1924     0.92652      .   S
    Zr1201 O1925     0.92716      .   S
    Zr1326 O1925     0.92716      .   S
    Zr1235 O1926     0.92734      .   S
    Zr1331 O1926     0.92734      .   S
    Zr1202 O1927     0.92503      .   S
    Zr1327 O1927     0.92503      .   S
    Zr1159 O1928     0.92643      .   S
    Zr1147 O1928     0.92643      .   S
    Zr1159 O1929     0.92973      .   S
    Zr1093 O1929     0.92973      .   S
    Zr1158 O1930     0.92602      .   S
    Zr1146 O1930     0.92602      .   S
    Zr1158 O1931     0.92602      .   S
    Zr1092 O1931     0.92602      .   S
    Zr1157 O1932     0.92958      .   S
    Zr1132 O1932     0.92958      .   S
    Zr1157 O1933     0.93099      .   S
    Zr1111 O1933     0.93099      .   S
    Zr1156 O1934     0.92463      .   S
    Zr1131 O1934     0.92463      .   S
    Zr1156 O1935     0.92716      .   S
    Zr1110 O1935     0.92716      .   S
    Zr1324 O1936     0.92620      .   S
    Zr1278 O1936     0.92620      .   S
    Zr1324 O1937     0.92648      .   S
    Zr1299 O1937     0.92648      .   S
    Zr1325 O1938     0.92879      .   S
    Zr1279 O1938     0.92879      .   S
    Zr1325 O1939     0.92578      .   S
    Zr1300 O1939     0.92578      .   S
    Zr1329 O1940     0.92521      .   S
    Zr1318 O1940     0.92521      .   S
    Zr1329 O1941     0.92260      .   S
    Zr1264 O1941     0.92260      .   S
    Zr1328 O1942     0.92552      .   S
    Zr1317 O1942     0.92552      .   S
    Zr1328 O1943     0.92998      .   S
    Zr1263 O1943     0.92998      .   S
    Zr1160 O1944     0.92706      .   S
    Zr1149 O1944     0.92706      .   S
    Zr1160 O1945     0.92341      .   S
    Zr1095 O1945     0.92341      .   S
    Zr1162 O1946     0.92650      .   S
    Zr1113 O1946     0.92650      .   S
    Zr1162 O1947     0.92363      .   S
    Zr1128 O1947     0.92363      .   S
    Zr1163 O1948     0.92745      .   S
    Zr1114 O1948     0.92745      .   S
    Zr1163 O1949     0.92978      .   S
    Zr1129 O1949     0.92978      .   S
    Zr1161 O1950     0.92766      .   S
    Zr1150 O1950     0.92766      .   S
    Zr1161 O1951     0.92982      .   S
    Zr1096 O1951     0.92982      .   S
    Zr1326 O1952     0.92742      .   S
    Zr1260 O1952     0.92742      .   S
    Zr1326 O1953     0.92353      .   S
    Zr1314 O1953     0.92353      .   S
    Zr1330 O1954     0.92846      .   S
    Zr1296 O1954     0.92846      .   S
    Zr1330 O1955     0.92598      .   S
    Zr1281 O1955     0.92598      .   S
    Zr1327 O1956     0.92564      .   S
    Zr1261 O1956     0.92564      .   S
    Zr1327 O1957     0.92609      .   S
    Zr1315 O1957     0.92609      .   S
    Zr1331 O1958     0.92771      .   S
    Zr1297 O1958     0.92771      .   S
    Zr1331 O1959     0.92712      .   S
    Zr1282 O1959     0.92712      .   S
    Zr1147 O1960     0.63530      .   S
    Zr1148 O1960     0.63530      .   S
    Zr1146 O1961     0.63508      .   S
    Zr1148 O1961     0.63508      .   S
    Zr1131 O1962     0.63471      .   S
    Zr1133 O1962     0.63471      .   S
    Zr1132 O1963     0.63617      .   S
    Zr1133 O1963     0.63617      .   S
    Zr1092 O1964     0.63505      .   S
    Zr1094 O1964     0.63505      .   S
    Zr1278 O1965     0.63506      .   S
    Zr1280 O1965     0.63506      .   S
    Zr1093 O1966     0.63599      .   S
    Zr1094 O1966     0.63599      .   S
    Zr1279 O1967     0.63584      .   S
    Zr1280 O1967     0.63584      .   S
    Zr1299 O1968     0.63517      .   S
    Zr1301 O1968     0.63517      .   S
    Zr1300 O1969     0.63525      .   S
    Zr1301 O1969     0.63525      .   S
    Zr1110 O1970     0.63562      .   S
    Zr1112 O1970     0.63562      .   S
    Zr1111 O1971     0.63583      .   S
    Zr1112 O1971     0.63583      .   S
    Zr1318 O1972     0.63474      .   S
    Zr1319 O1972     0.63474      .   S
    Zr1317 O1973     0.63540      .   S
    Zr1319 O1973     0.63540      .   S
    Zr1264 O1974     0.63471      .   S
    Zr1265 O1974     0.63471      .   S
    Zr1263 O1975     0.63560      .   S
    Zr1265 O1975     0.63560      .   S
    Zr1149 O1976     0.63526      .   S
    Zr1151 O1976     0.63526      .   S
    Zr1095 O1977     0.63507      .   S
    Zr1097 O1977     0.63507      .   S
    Zr1113 O1978     0.63530      .   S
    Zr1115 O1978     0.63530      .   S
    Zr1114 O1979     0.63541      .   S
    Zr1115 O1979     0.63541      .   S
    Zr1128 O1980     0.63513      .   S
    Zr1130 O1980     0.63513      .   S
    Zr1150 O1981     0.63533      .   S
    Zr1151 O1981     0.63533      .   S
    Zr1260 O1982     0.63549      .   S
    Zr1262 O1982     0.63549      .   S
    Zr1129 O1983     0.63545      .   S
    Zr1130 O1983     0.63545      .   S
    Zr1261 O1984     0.63488      .   S
    Zr1262 O1984     0.63488      .   S
    Zr1096 O1985     0.63566      .   S
    Zr1097 O1985     0.63566      .   S
    Zr1296 O1986     0.63541      .   S
    Zr1298 O1986     0.63541      .   S
    Zr1281 O1987     0.63557      .   S
    Zr1283 O1987     0.63557      .   S
    Zr1314 O1988     0.63479      .   S
    Zr1316 O1988     0.63479      .   S
    Zr1297 O1989     0.63568      .   S
    Zr1298 O1989     0.63568      .   S
    Zr1282 O1990     0.63495      .   S
    Zr1283 O1990     0.63495      .   S
    Zr1315 O1991     0.63512      .   S
    Zr1316 O1991     0.63512      .   S
    Zr1104 O1992     0.63556      .   S
    Zr1106 O1992     0.63556      .   S
    Zr1104 O1993     0.92889      .   S
    Zr1152 O1993     0.92889  1_455   S
    Zr1143 O1994     0.63520      .   S
    Zr1145 O1994     0.63520      .   S
    Zr1143 O1995     0.92774      .   S
    Zr1152 O1995     0.92774      .   S
    Zr1125 O1996     0.63492      .   S
    Zr1127 O1996     0.63492      .   S
    Zr1125 O1997     0.92663      .   S
    Zr1164 O1997     0.92663      .   S
    Zr1086 O1998     0.63519      .   S
    Zr1088 O1998     0.63519      .   S
    Zr1086 O1999     0.92612      .   S
    Zr1164 O1999     0.92612      .   S
    Zr1140 O2000     0.63526      .   S
    Zr1142 O2000     0.63526      .   S
    Zr1140 O2001     0.92609      .   S
    Zr1154 O2001     0.92609  1_455   S
    Zr1107 O2002     0.63512      .   S
    Zr1109 O2002     0.63512      .   S
    Zr1107 O2003     0.92661      .   S
    Zr1154 O2003     0.92661      .   S
    Zr1089 O2004     0.63520      .   S
    Zr1091 O2004     0.63520      .   S
    Zr1089 O2005     0.92600      .   S
    Zr1166 O2005     0.92600      .   S
    Zr1293 O2006     0.63474      .   S
    Zr1295 O2006     0.63474      .   S
    Zr1293 O2007     0.92457      .   S
    Zr1332 O2007     0.92457      .   S
    Zr1122 O2008     0.63511      .   S
    Zr1124 O2008     0.63511      .   S
    Zr1122 O2009     0.92446      .   S
    Zr1166 O2009     0.92446      .   S
    Zr1272 O2010     0.63508      .   S
    Zr1274 O2010     0.63508      .   S
    Zr1272 O2011     0.92623      .   S
    Zr1320 O2011     0.92623      .   S
    Zr1311 O2012     0.63527      .   S
    Zr1313 O2012     0.63527      .   S
    Zr1311 O2013     0.92518      .   S
    Zr1320 O2013     0.92518      .   S
    Zr1257 O2014     0.63489      .   S
    Zr1259 O2014     0.63489      .   S
    Zr1257 O2015     0.92532      .   S
    Zr1334 O2015     0.92532  1_545   S
    Zr1275 O2016     0.63485      .   S
    Zr1277 O2016     0.63485      .   S
    Zr1275 O2017     0.92476      .   S
    Zr1322 O2017     0.92476      .   S
    Zr1254 O2018     0.63527      .   S
    Zr1256 O2018     0.63527      .   S
    Zr1254 O2019     0.92567      .   S
    Zr1332 O2019     0.92567  1_565   S
    Zr1290 O2020     0.63550      .   S
    Zr1292 O2020     0.63550      .   S
    Zr1290 O2021     0.92689      .   S
    Zr1334 O2021     0.92689      .   S
    Zr1308 O2022     0.63504      .   S
    Zr1310 O2022     0.63504      .   S
    Zr1308 O2023     0.92583      .   S
    Zr1322 O2023     0.92583      .   S
    Zr1106 O2024     0.63535      .   S
    Zr1105 O2024     0.63535      .   S
    Zr1145 O2025     0.63531      .   S
    Zr1144 O2025     0.63531      .   S
    Zr1295 O2026     0.63581      .   S
    Zr1294 O2026     0.63581      .   S
    Zr1127 O2027     0.63555      .   S
    Zr1126 O2027     0.63555      .   S
    Zr1088 O2028     0.63559      .   S
    Zr1087 O2028     0.63559      .   S
    Zr1142 O2029     0.63504      .   S
    Zr1141 O2029     0.63504      .   S
    Zr1091 O2030     0.63526      .   S
    Zr1090 O2030     0.63526      .   S
    Zr1109 O2031     0.63460      .   S
    Zr1108 O2031     0.63460      .   S
    Zr1274 O2032     0.63541      .   S
    Zr1273 O2032     0.63541      .   S
    Zr1313 O2033     0.63506      .   S
    Zr1312 O2033     0.63506      .   S
    Zr1124 O2034     0.63555      .   S
    Zr1123 O2034     0.63555      .   S
    Zr1277 O2035     0.63599      .   S
    Zr1276 O2035     0.63599      .   S
    Zr1259 O2036     0.63459      .   S
    Zr1258 O2036     0.63459      .   S
    Zr1256 O2037     0.63515      .   S
    Zr1255 O2037     0.63515      .   S
    Zr1292 O2038     0.63477      .   S
    Zr1291 O2038     0.63477      .   S
    Zr1310 O2039     0.63560      .   S
    Zr1309 O2039     0.63560      .   S
    Zr1152 O2040     0.92774  1_455   S
    Zr1119 O2040     0.92774      .   S
    Zr1152 O2041     0.92843      .   S
    Zr1080 O2041     0.92843      .   S
    Zr1164 O2042     0.92577      .   S
    Zr1098 O2042     0.92577      .   S
    Zr1164 O2043     0.92625      .   S
    Zr1137 O2043     0.92625      .   S
    Zr1154 O2044     0.92643  1_455   S
    Zr1083 O2044     0.92643      .   S
    Zr1154 O2045     0.92668      .   S
    Zr1116 O2045     0.92668      .   S
    Zr1166 O2046     0.92426      .   S
    Zr1134 O2046     0.92426      .   S
    Zr1166 O2047     0.92569      .   S
    Zr1101 O2047     0.92569      .   S
    Zr1320 O2048     0.92557      .   S
    Zr1287 O2048     0.92557      .   S
    Zr1320 O2049     0.92579      .   S
    Zr1248 O2049     0.92579      .   S
    Zr1334 O2050     0.92669  1_545   S
    Zr1302 O2050     0.92669      .   S
    Zr1334 O2051     0.92555      .   S
    Zr1269 O2051     0.92555      .   S
    Zr1332 O2052     0.92596      .   S
    Zr1266 O2052     0.92596      .   S
    Zr1332 O2053     0.92468  1_565   S
    Zr1305 O2053     0.92468      .   S
    Zr1322 O2054     0.92396      .   S
    Zr1251 O2054     0.92396      .   S
    Zr1322 O2055     0.92520      .   S
    Zr1284 O2055     0.92520      .   S
    Zr1105 O2056     0.92546      .   S
    Zr1153 O2056     0.92546  1_455   S
    Zr1144 O2057     0.92527      .   S
    Zr1153 O2057     0.92527      .   S
    Zr1294 O2058     0.92762      .   S
    Zr1333 O2058     0.92762      .   S
    Zr1126 O2059     0.92612      .   S
    Zr1165 O2059     0.92612      .   S
    Zr1087 O2060     0.92863      .   S
    Zr1165 O2060     0.92863      .   S
    Zr1141 O2061     0.92405      .   S
    Zr1155 O2061     0.92405  1_455   S
    Zr1273 O2062     0.92847      .   S
    Zr1321 O2062     0.92847      .   S
    Zr1312 O2063     0.92453      .   S
    Zr1321 O2063     0.92453      .   S
    Zr1108 O2064     0.92432      .   S
    Zr1155 O2064     0.92432      .   S
    Zr1090 O2065     0.92822      .   S
    Zr1167 O2065     0.92822      .   S
    Zr1123 O2066     0.92923      .   S
    Zr1167 O2066     0.92923      .   S
    Zr1276 O2067     0.92973      .   S
    Zr1323 O2067     0.92973      .   S
    Zr1255 O2068     0.92633      .   S
    Zr1333 O2068     0.92633  1_565   S
    Zr1258 O2069     0.92270      .   S
    Zr1335 O2069     0.92270  1_545   S
    Zr1309 O2070     0.92890      .   S
    Zr1323 O2070     0.92890      .   S
    Zr1291 O2071     0.92436      .   S
    Zr1335 O2071     0.92436      .   S
    Zr1119 O2072     0.63518      .   S
    Zr1121 O2072     0.63518      .   S
    Zr1080 O2073     0.63579      .   S
    Zr1082 O2073     0.63579      .   S
    Zr1098 O2074     0.63546      .   S
    Zr1100 O2074     0.63546      .   S
    Zr1134 O2075     0.63520      .   S
    Zr1136 O2075     0.63520      .   S
    Zr1083 O2076     0.63533      .   S
    Zr1085 O2076     0.63533      .   S
    Zr1137 O2077     0.63535      .   S
    Zr1139 O2077     0.63535      .   S
    Zr1116 O2078     0.63529      .   S
    Zr1118 O2078     0.63529      .   S
    Zr1101 O2079     0.63535      .   S
    Zr1103 O2079     0.63535      .   S
    Zr1287 O2080     0.63499      .   S
    Zr1289 O2080     0.63499      .   S
    Zr1248 O2081     0.63525      .   S
    Zr1250 O2081     0.63525      .   S
    Zr1302 O2082     0.63502      .   S
    Zr1304 O2082     0.63502      .   S
    Zr1269 O2083     0.63522      .   S
    Zr1271 O2083     0.63522      .   S
    Zr1266 O2084     0.63536      .   S
    Zr1268 O2084     0.63536      .   S
    Zr1305 O2085     0.63500      .   S
    Zr1307 O2085     0.63500      .   S
    Zr1251 O2086     0.63504      .   S
    Zr1253 O2086     0.63504      .   S
    Zr1284 O2087     0.63546      .   S
    Zr1286 O2087     0.63546      .   S
    Zr1153 O2088     0.92477  1_455   S
    Zr1120 O2088     0.92477      .   S
    Zr1153 O2089     0.92601      .   S
    Zr1081 O2089     0.92601      .   S
    Zr1165 O2090     0.92912      .   S
    Zr1099 O2090     0.92912      .   S
    Zr1165 O2091     0.92661      .   S
    Zr1138 O2091     0.92661      .   S
    Zr1155 O2092     0.92405  1_455   S
    Zr1084 O2092     0.92405      .   S
    Zr1155 O2093     0.92428      .   S
    Zr1117 O2093     0.92428      .   S
    Zr1321 O2094     0.92416      .   S
    Zr1288 O2094     0.92416      .   S
    Zr1321 O2095     0.92831      .   S
    Zr1249 O2095     0.92831      .   S
    Zr1167 O2096     0.92900      .   S
    Zr1135 O2096     0.92900      .   S
    Zr1167 O2097     0.92887      .   S
    Zr1102 O2097     0.92887      .   S
    Zr1333 O2098     0.92689      .   S
    Zr1267 O2098     0.92689      .   S
    Zr1333 O2099     0.92791  1_565   S
    Zr1306 O2099     0.92791      .   S
    Zr1335 O2100     0.92417  1_545   S
    Zr1303 O2100     0.92417      .   S
    Zr1335 O2101     0.92291      .   S
    Zr1270 O2101     0.92291      .   S
    Zr1323 O2102     0.93007      .   S
    Zr1252 O2102     0.93007      .   S
    Zr1323 O2103     0.92937      .   S
    Zr1285 O2103     0.92937      .   S
    Zr1121 O2104     0.63506      .   S
    Zr1120 O2104     0.63506      .   S
    Zr1082 O2105     0.63489      .   S
    Zr1081 O2105     0.63489      .   S
    Zr1100 O2106     0.63539      .   S
    Zr1099 O2106     0.63539      .   S
    Zr1136 O2107     0.63566      .   S
    Zr1135 O2107     0.63566      .   S
    Zr1085 O2108     0.63477      .   S
    Zr1084 O2108     0.63477      .   S
    Zr1139 O2109     0.63537      .   S
    Zr1138 O2109     0.63537      .   S
    Zr1118 O2110     0.63492      .   S
    Zr1117 O2110     0.63492      .   S
    Zr1289 O2111     0.63494      .   S
    Zr1288 O2111     0.63494      .   S
    Zr1103 O2112     0.63525      .   S
    Zr1102 O2112     0.63525      .   S
    Zr1250 O2113     0.63518      .   S
    Zr1249 O2113     0.63518      .   S
    Zr1304 O2114     0.63528      .   S
    Zr1303 O2114     0.63528      .   S
    Zr1268 O2115     0.63512      .   S
    Zr1267 O2115     0.63512      .   S
    Zr1271 O2116     0.63471      .   S
    Zr1270 O2116     0.63471      .   S
    Zr1307 O2117     0.63519      .   S
    Zr1306 O2117     0.63519      .   S
    Zr1286 O2118     0.63513      .   S
    Zr1285 O2118     0.63513      .   S
    Zr1253 O2119     0.63543      .   S
    Zr1252 O2119     0.63543      .   S
    Zr535  O2120     0.54007      .   S
    Zr532  O2120     0.54007      .   S
    Zr613  O2121     0.53948      .   S
    Zr610  O2121     0.53948      .   S
    Zr517  O2122     0.53973      .   S
    Zr515  O2122     0.53973      .   S
    Zr543  O2123     0.54088      .   S
    Zr541  O2123     0.54088      .   S
    Zr223  O2124     0.53983      .   S
    Zr220  O2124     0.53983      .   S
    Zr301  O2125     0.53987      .   S
    Zr298  O2125     0.53987      .   S
    Zr327  O2126     0.54018      .   S
    Zr324  O2126     0.54018      .   S
    Zr431  O2127     0.54000      .   S
    Zr428  O2127     0.54000      .   S
    Zr231  O2128     0.53974      .   S
    Zr229  O2128     0.53974      .   S
    Zr509  O2129     0.54000      .   S
    Zr506  O2129     0.54000      .   S
    Zr309  O2130     0.53974      .   S
    Zr307  O2130     0.53974      .   S
    Zr621  O2131     0.53981      .   S
    Zr619  O2131     0.53981      .   S
    Zr439  O2132     0.53996      .   S
    Zr437  O2132     0.53996      .   S
    Zr335  O2133     0.54020      .   S
    Zr333  O2133     0.54020      .   S
    Zr405  O2134     0.54039      .   S
    Zr402  O2134     0.54039      .   S
    Zr532  O2135     0.69297      .   S
    Zr533  O2135     0.69297      .   S
    Zr532  O2136     0.67199      .   S
    Zr531  O2136     0.67199      .   S
    Zr413  O2137     0.54038      .   S
    Zr411  O2137     0.54038      .   S
    Zr610  O2138     0.69456      .   S
    Zr611  O2138     0.69456      .   S
    Zr610  O2139     0.67190      .   S
    Zr609  O2139     0.67190      .   S
    Zr515  O2140     0.69155      .   S
    Zr514  O2140     0.69155      .   S
    Zr515  O2141     0.67203      .   S
    Zr511  O2141     0.67203      .   S
    Zr220  O2142     0.69110      .   S
    Zr221  O2142     0.69110      .   S
    Zr220  O2143     0.67041      .   S
    Zr219  O2143     0.67041      .   S
    Zr298  O2144     0.69170      .   S
    Zr299  O2144     0.69170      .   S
    Zr298  O2145     0.67099      .   S
    Zr297  O2145     0.67099      .   S
    Zr324  O2146     0.69391      .   S
    Zr325  O2146     0.69391      .   S
    Zr324  O2147     0.67250      .   S
    Zr323  O2147     0.67250      .   S
    Zr533  O2148     0.69401      .   S
    Zr534  O2148     0.69401      .   S
    Zr541  O2149     0.69034      .   S
    Zr540  O2149     0.69034      .   S
    Zr541  O2150     0.67281      .   S
    Zr537  O2150     0.67281      .   S
    Zr229  O2151     0.69180      .   S
    Zr228  O2151     0.69180      .   S
    Zr229  O2152     0.67218      .   S
    Zr225  O2152     0.67218      .   S
    Zr428  O2153     0.69648      .   S
    Zr429  O2153     0.69648      .   S
    Zr428  O2154     0.67408      .   S
    Zr427  O2154     0.67408      .   S
    Zr307  O2155     0.69040      .   S
    Zr306  O2155     0.69040      .   S
    Zr307  O2156     0.67111      .   S
    Zr303  O2156     0.67111      .   S
    Zr506  O2157     0.69097      .   S
    Zr507  O2157     0.69097      .   S
    Zr506  O2158     0.67030      .   S
    Zr505  O2158     0.67030      .   S
    Zr619  O2159     0.69331      .   S
    Zr618  O2159     0.69331      .   S
    Zr619  O2160     0.67280      .   S
    Zr615  O2160     0.67280      .   S
    Zr611  O2161     0.69617      .   S
    Zr612  O2161     0.69617      .   S
    Zr437  O2162     0.69403      .   S
    Zr436  O2162     0.69403      .   S
    Zr437  O2163     0.67466      .   S
    Zr433  O2163     0.67466      .   S
    Zr514  O2164     0.69353      .   S
    Zr513  O2164     0.69353      .   S
    Zr402  O2165     0.69289      .   S
    Zr403  O2165     0.69289      .   S
    Zr402  O2166     0.67141      .   S
    Zr401  O2166     0.67141      .   S
    Zr325  O2167     0.69367      .   S
    Zr326  O2167     0.69367      .   S
    Zr333  O2168     0.69331      .   S
    Zr332  O2168     0.69331      .   S
    Zr333  O2169     0.67329      .   S
    Zr329  O2169     0.67329      .   S
    Zr411  O2170     0.69270      .   S
    Zr410  O2170     0.69270      .   S
    Zr411  O2171     0.67246      .   S
    Zr407  O2171     0.67246      .   S
    Zr221  O2172     0.69583      .   S
    Zr222  O2172     0.69583      .   S
    Zr299  O2173     0.69441      .   S
    Zr300  O2173     0.69441      .   S
    Zr410  O2174     0.69353      .   S
    Zr409  O2174     0.69353      .   S
    Zr403  O2175     0.69543      .   S
    Zr404  O2175     0.69543      .   S
    Zr228  O2176     0.69376      .   S
    Zr227  O2176     0.69376      .   S
    Zr429  O2177     0.69393      .   S
    Zr430  O2177     0.69393      .   S
    Zr306  O2178     0.69491      .   S
    Zr305  O2178     0.69491      .   S
    Zr507  O2179     0.69522      .   S
    Zr508  O2179     0.69522      .   S
    Zr531  O2180     0.97047      .   S
    Zr529  O2180     0.97047      .   S
    Zr531  O2181     0.65631      .   S
    Zr530  O2181     0.65631      .   S
    Zr540  O2182     0.69158      .   S
    Zr539  O2182     0.69158      .   S
    Zr529  O2183     0.98208      .   S
    Zr537  O2183     0.98208      .   S
    Zr332  O2184     0.69267      .   S
    Zr331  O2184     0.69267      .   S
    Zr618  O2185     0.69295      .   S
    Zr617  O2185     0.69295      .   S
    Zr436  O2186     0.69205      .   S
    Zr435  O2186     0.69205      .   S
    Zr503  O2187     0.97887      .   S
    Zr511  O2187     0.97887      .   S
    Zr503  O2188     0.96677      .   S
    Zr505  O2188     0.96677      .   S
    Zr511  O2189     0.65884      .   S
    Zr512  O2189     0.65884      .   S
    Zr609  O2190     0.97127      .   S
    Zr607  O2190     0.97127      .   S
    Zr609  O2191     0.65659      .   S
    Zr608  O2191     0.65659      .   S
    Zr295  O2192     0.96712      .   S
    Zr297  O2192     0.96712      .   S
    Zr295  O2193     0.97824      .   S
    Zr303  O2193     0.97824      .   S
    Zr607  O2194     0.98402      .   S
    Zr615  O2194     0.98402      .   S
    Zr607  O2195     1.03370      .   S
    Zr623  O2195     1.03370      .   S
    Zr607  O2196     1.03297      .   S
    Zr622  O2196     1.03297      .   S
    Zr217  O2197     0.96790      .   S
    Zr219  O2197     0.96790      .   S
    Zr217  O2198     0.98043      .   S
    Zr225  O2198     0.98043      .   S
    Zr297  O2199     0.65599      .   S
    Zr296  O2199     0.65599      .   S
    Zr219  O2200     0.65708      .   S
    Zr218  O2200     0.65708      .   S
    Zr537  O2201     0.66008      .   S
    Zr538  O2201     0.66008      .   S
    Zr425  O2202     0.97805      .   S
    Zr427  O2202     0.97805      .   S
    Zr425  O2203     0.98942      .   S
    Zr433  O2203     0.98942      .   S
    Zr425  O2204     1.02892      .   S
    Zr441  O2204     1.02892      .   S
    Zr425  O2205     1.03105      .   S
    Zr440  O2205     1.03105      .   S
    Zr505  O2206     0.65674      .   S
    Zr504  O2206     0.65674      .   S
    Zr225  O2207     0.65880      .   S
    Zr226  O2207     0.65880      .   S
    Zr303  O2208     0.65931      .   S
    Zr304  O2208     0.65931      .   S
    Zr427  O2209     0.65665      .   S
    Zr426  O2209     0.65665      .   S
    Zr323  O2210     0.97136      .   S
    Zr321  O2210     0.97136      .   S
    Zr323  O2211     0.65616      .   S
    Zr322  O2211     0.65616      .   S
    Zr615  O2212     0.65916      .   S
    Zr616  O2212     0.65916      .   S
    Zr433  O2213     0.65988      .   S
    Zr434  O2213     0.65988      .   S
    Zr407  O2214     0.98195      .   S
    Zr399  O2214     0.98195      .   S
    Zr407  O2215     0.65933      .   S
    Zr408  O2215     0.65933      .   S
    Zr321  O2216     0.98393      .   S
    Zr329  O2216     0.98393      .   S
    Zr321  O2217     1.02643      .   S
    Zr337  O2217     1.02643      .   S
    Zr401  O2218     0.97121      .   S
    Zr399  O2218     0.97121      .   S
    Zr401  O2219     0.65716      .   S
    Zr400  O2219     0.65716      .   S
    Zr329  O2220     0.65928      .   S
    Zr330  O2220     0.65928      .   S
    Zr409  O2221     0.54043      .   S
    Zr412  O2221     0.54043      .   S
    Zr409  O2222     0.67319      .   S
    Zr408  O2222     0.67319      .   S
    Zr534  O2223     0.67362      .   S
    Zr530  O2223     0.67362      .   S
    Zr534  O2224     0.54012      .   S
    Zr536  O2224     0.54012      .   S
    Zr399  O2225     1.01083      .   S
    Zr415  O2225     1.01083      .   S
    Zr513  O2226     0.67320      .   S
    Zr512  O2226     0.67320      .   S
    Zr513  O2227     0.53996      .   S
    Zr516  O2227     0.53996      .   S
    Zr612  O2228     0.67382      .   S
    Zr608  O2228     0.67382      .   S
    Zr612  O2229     0.54024      .   S
    Zr614  O2229     0.54024      .   S
    Zr404  O2230     0.67443      .   S
    Zr400  O2230     0.67443      .   S
    Zr404  O2231     0.54045      .   S
    Zr406  O2231     0.54045      .   S
    Zr326  O2232     0.67321      .   S
    Zr322  O2232     0.67321      .   S
    Zr326  O2233     0.54022      .   S
    Zr328  O2233     0.54022      .   S
    Zr300  O2234     0.67457      .   S
    Zr296  O2234     0.67457      .   S
    Zr300  O2235     0.54051      .   S
    Zr302  O2235     0.54051      .   S
    Zr222  O2236     0.67578      .   S
    Zr218  O2236     0.67578      .   S
    Zr222  O2237     0.54053      .   S
    Zr224  O2237     0.54053      .   S
    Zr530  O2238     0.97391      .   S
    Zr527  O2238     0.97391      .   S
    Zr227  O2239     0.67402      .   S
    Zr226  O2239     0.67402      .   S
    Zr227  O2240     0.54008      .   S
    Zr230  O2240     0.54008      .   S
    Zr408  O2241     0.98353      .   S
    Zr398  O2241     0.98353      .   S
    Zr430  O2242     0.67139      .   S
    Zr426  O2242     0.67139      .   S
    Zr430  O2243     0.53890      .   S
    Zr432  O2243     0.53890      .   S
    Zr305  O2244     0.67502      .   S
    Zr304  O2244     0.67502      .   S
    Zr305  O2245     0.54039      .   S
    Zr308  O2245     0.54039      .   S
    Zr512  O2246     0.98355      .   S
    Zr502  O2246     0.98355      .   S
    Zr508  O2247     0.67537      .   S
    Zr504  O2247     0.67537      .   S
    Zr508  O2248     0.54064      .   S
    Zr510  O2248     0.54064      .   S
    Zr519  O2249     1.02958      .   S
    Zr502  O2249     1.02958      .   S
    Zr608  O2250     0.97531      .   S
    Zr605  O2250     0.97531      .   S
    Zr331  O2251     0.67271      .   S
    Zr330  O2251     0.67271      .   S
    Zr331  O2252     0.54010      .   S
    Zr334  O2252     0.54010      .   S
    Zr233  O2253     1.02965      .   S
    Zr216  O2253     1.02965      .   S
    Zr296  O2254     0.97453      .   S
    Zr293  O2254     0.97453      .   S
    Zr311  O2255     1.02427      .   S
    Zr294  O2255     1.02427      .   S
    Zr218  O2256     0.98078      .   S
    Zr215  O2256     0.98078      .   S
    Zr545  O2257     1.03165      .   S
    Zr528  O2257     1.03165      .   S
    Zr322  O2258     0.97229      .   S
    Zr319  O2258     0.97229      .   S
    Zr226  O2259     0.98551      .   S
    Zr216  O2259     0.98551      .   S
    Zr400  O2260     0.97690      .   S
    Zr397  O2260     0.97690      .   S
    Zr617  O2261     0.67311      .   S
    Zr616  O2261     0.67311      .   S
    Zr617  O2262     0.53983      .   S
    Zr620  O2262     0.53983      .   S
    Zr435  O2263     0.67215      .   S
    Zr434  O2263     0.67215      .   S
    Zr435  O2264     0.53976      .   S
    Zr438  O2264     0.53976      .   S
    Zr539  O2265     0.67409      .   S
    Zr538  O2265     0.67409      .   S
    Zr539  O2266     0.54118      .   S
    Zr542  O2266     0.54118      .   S
    Zr304  O2267     0.99020      .   S
    Zr294  O2267     0.99020      .   S
    Zr504  O2268     0.97796      .   S
    Zr501  O2268     0.97796      .   S
    Zr426  O2269     0.96916      .   S
    Zr423  O2269     0.96916      .   S
    Zr538  O2270     0.98568      .   S
    Zr528  O2270     0.98568      .   S
    Zr330  O2271     0.98297      .   S
    Zr320  O2271     0.98297      .   S
    Zr616  O2272     0.98339      .   S
    Zr606  O2272     0.98339      .   S
    Zr434  O2273     0.98350      .   S
    Zr424  O2273     0.98350      .   S
    Zr544  O2274     1.03347      .   S
    Zr528  O2274     1.03347      .   S
    Zr398  O2275     1.00550      .   S
    Zr414  O2275     1.00550      .   S
    Zr398  O2276     0.97336      .   S
    Zr390  O2276     0.97336      .   S
    Zr518  O2277     1.02901      .   S
    Zr502  O2277     1.02901      .   S
    Zr232  O2278     1.02775      .   S
    Zr216  O2278     1.02775      .   S
    Zr310  O2279     1.02520      .   S
    Zr294  O2279     1.02520      .   S
    Zr502  O2280     0.97063      .   S
    Zr494  O2280     0.97063      .   S
    Zr527  O2281     0.97315      .   S
    Zr521  O2281     0.97315      .   S
    Zr336  O2282     1.01995      .   S
    Zr320  O2282     1.01995      .   S
    Zr293  O2283     0.97306      .   S
    Zr287  O2283     0.97306      .   S
    Zr397  O2284     0.97642      .   S
    Zr391  O2284     0.97642      .   S
    Zr605  O2285     0.97553      .   S
    Zr599  O2285     0.97553      .   S
    Zr215  O2286     0.97966      .   S
    Zr209  O2286     0.97966      .   S
    Zr216  O2287     0.97207      .   S
    Zr208  O2287     0.97207      .   S
    Zr501  O2288     0.97726      .   S
    Zr495  O2288     0.97726      .   S
    Zr294  O2289     0.97759      .   S
    Zr286  O2289     0.97759      .   S
    Zr423  O2290     0.96899      .   S
    Zr417  O2290     0.96899      .   S
    Zr320  O2291     0.97091      .   S
    Zr312  O2291     0.97091      .   S
    Zr319  O2292     0.97200      .   S
    Zr313  O2292     0.97200      .   S
    Zr528  O2293     0.97342      .   S
    Zr520  O2293     0.97342      .   S
    Zr606  O2294     0.97107      .   S
    Zr598  O2294     0.97107      .   S
    Zr424  O2295     0.97261      .   S
    Zr416  O2295     0.97261      .   S
    Zr390  O2296     0.65702      .   S
    Zr391  O2296     0.65702      .   S
    Zr390  O2297     0.67178      .   S
    Zr394  O2297     0.67178      .   S
    Zr391  O2298     0.67392      .   S
    Zr392  O2298     0.67392      .   S
    Zr494  O2299     0.65727      .   S
    Zr495  O2299     0.65727      .   S
    Zr494  O2300     0.67120      .   S
    Zr498  O2300     0.67120      .   S
    Zr495  O2301     0.67482      .   S
    Zr496  O2301     0.67482      .   S
    Zr208  O2302     0.65730      .   S
    Zr209  O2302     0.65730      .   S
    Zr208  O2303     0.67171      .   S
    Zr212  O2303     0.67171      .   S
    Zr287  O2304     0.65721      .   S
    Zr286  O2304     0.65721      .   S
    Zr287  O2305     0.67256      .   S
    Zr288  O2305     0.67256      .   S
    Zr209  O2306     0.67535      .   S
    Zr210  O2306     0.67535      .   S
    Zr521  O2307     0.65669      .   S
    Zr520  O2307     0.65669      .   S
    Zr521  O2308     0.67350      .   S
    Zr522  O2308     0.67350      .   S
    Zr286  O2309     0.67356      .   S
    Zr290  O2309     0.67356      .   S
    Zr599  O2310     0.65641      .   S
    Zr598  O2310     0.65641      .   S
    Zr599  O2311     0.67417      .   S
    Zr600  O2311     0.67417      .   S
    Zr312  O2312     0.65625      .   S
    Zr313  O2312     0.65625      .   S
    Zr312  O2313     0.67235      .   S
    Zr316  O2313     0.67235      .   S
    Zr313  O2314     0.67331      .   S
    Zr314  O2314     0.67331      .   S
    Zr520  O2315     0.67261      .   S
    Zr524  O2315     0.67261      .   S
    Zr417  O2316     0.65660      .   S
    Zr416  O2316     0.65660      .   S
    Zr417  O2317     0.67225      .   S
    Zr418  O2317     0.67225      .   S
    Zr598  O2318     0.67146      .   S
    Zr602  O2318     0.67146      .   S
    Zr416  O2319     0.67344      .   S
    Zr420  O2319     0.67344      .   S
    Zr394  O2320     0.54040      .   S
    Zr396  O2320     0.54040      .   S
    Zr394  O2321     0.69298      .   S
    Zr393  O2321     0.69298      .   S
    Zr498  O2322     0.53977      .   S
    Zr500  O2322     0.53977      .   S
    Zr498  O2323     0.69246      .   S
    Zr497  O2323     0.69246      .   S
    Zr212  O2324     0.53993      .   S
    Zr214  O2324     0.53993      .   S
    Zr212  O2325     0.69246      .   S
    Zr211  O2325     0.69246      .   S
    Zr522  O2326     0.53999      .   S
    Zr525  O2326     0.53999      .   S
    Zr522  O2327     0.69376      .   S
    Zr523  O2327     0.69376      .   S
    Zr210  O2328     0.54025      .   S
    Zr213  O2328     0.54025      .   S
    Zr210  O2329     0.69574      .   S
    Zr211  O2329     0.69574      .   S
    Zr496  O2330     0.54051      .   S
    Zr499  O2330     0.54051      .   S
    Zr496  O2331     0.69513      .   S
    Zr497  O2331     0.69513      .   S
    Zr288  O2332     0.53998      .   S
    Zr291  O2332     0.53998      .   S
    Zr288  O2333     0.69329      .   S
    Zr289  O2333     0.69329      .   S
    Zr392  O2334     0.54032      .   S
    Zr395  O2334     0.54032      .   S
    Zr392  O2335     0.69492      .   S
    Zr393  O2335     0.69492      .   S
    Zr600  O2336     0.54010      .   S
    Zr603  O2336     0.54010      .   S
    Zr600  O2337     0.69624      .   S
    Zr601  O2337     0.69624      .   S
    Zr316  O2338     0.53998      .   S
    Zr318  O2338     0.53998      .   S
    Zr316  O2339     0.69306      .   S
    Zr315  O2339     0.69306      .   S
    Zr290  O2340     0.54011      .   S
    Zr292  O2340     0.54011      .   S
    Zr290  O2341     0.69427      .   S
    Zr289  O2341     0.69427      .   S
    Zr314  O2342     0.53983      .   S
    Zr317  O2342     0.53983      .   S
    Zr314  O2343     0.69388      .   S
    Zr315  O2343     0.69388      .   S
    Zr418  O2344     0.53913      .   S
    Zr421  O2344     0.53913      .   S
    Zr418  O2345     0.69269      .   S
    Zr419  O2345     0.69269      .   S
    Zr524  O2346     0.53994      .   S
    Zr526  O2346     0.53994      .   S
    Zr524  O2347     0.69394      .   S
    Zr523  O2347     0.69394      .   S
    Zr602  O2348     0.53934      .   S
    Zr604  O2348     0.53934      .   S
    Zr602  O2349     0.69467      .   S
    Zr601  O2349     0.69467      .   S
    Zr420  O2350     0.53995      .   S
    Zr422  O2350     0.53995      .   S
    Zr420  O2351     0.69338      .   S
    Zr419  O2351     0.69338      .   S
    Zr679  O2352     0.69469      .   S
    Zr678  O2352     0.69469      .   S
    Zr679  O2353     0.69223      .   S
    Zr680  O2353     0.69223      .   S
    Zr159  O2354     0.69509      .   S
    Zr160  O2354     0.69509      .   S
    Zr159  O2355     0.69145      .   S
    Zr158  O2355     0.69145      .   S
    Zr55   O2356     0.69680      .   S
    Zr56   O2356     0.69680      .   S
    Zr55   O2357     0.69416      .   S
    Zr54   O2357     0.69416      .   S
    Zr783  O2358     0.69397      .   S
    Zr782  O2358     0.69397      .   S
    Zr783  O2359     0.69340      .   S
    Zr784  O2359     0.69340      .   S
    Zr757  O2360     0.69211      .   S
    Zr756  O2360     0.69211      .   S
    Zr757  O2361     0.69458      .   S
    Zr758  O2361     0.69458      .   S
    Zr653  O2362     0.69536      .   S
    Zr654  O2362     0.69536      .   S
    Zr653  O2363     0.69262      .   S
    Zr652  O2363     0.69262      .   S
    Zr29   O2364     0.69231      .   S
    Zr28   O2364     0.69231      .   S
    Zr29   O2365     0.69497      .   S
    Zr30   O2365     0.69497      .   S
    Zr133  O2366     0.69793      .   S
    Zr132  O2366     0.69793      .   S
    Zr133  O2367     0.69266      .   S
    Zr134  O2367     0.69266      .   S
    Zr681  O2368     0.54004      .   S
    Zr678  O2368     0.54004      .   S
    Zr759  O2369     0.54027      .   S
    Zr756  O2369     0.54027      .   S
    Zr162  O2370     0.54066      .   S
    Zr160  O2370     0.54066      .   S
    Zr135  O2371     0.54051      .   S
    Zr132  O2371     0.54051      .   S
    Zr161  O2372     0.54037      .   S
    Zr158  O2372     0.54037      .   S
    Zr58   O2373     0.53993      .   S
    Zr56   O2373     0.53993      .   S
    Zr785  O2374     0.53999      .   S
    Zr782  O2374     0.53999      .   S
    Zr678  O2375     0.67472      .   S
    Zr677  O2375     0.67472      .   S
    Zr682  O2376     0.53992      .   S
    Zr680  O2376     0.53992      .   S
    Zr57   O2377     0.53894      .   S
    Zr54   O2377     0.53894      .   S
    Zr31   O2378     0.53971      .   S
    Zr28   O2378     0.53971      .   S
    Zr656  O2379     0.54029      .   S
    Zr654  O2379     0.54029      .   S
    Zr786  O2380     0.54021      .   S
    Zr784  O2380     0.54021      .   S
    Zr655  O2381     0.53969      .   S
    Zr652  O2381     0.53969      .   S
    Zr160  O2382     0.67444      .   S
    Zr156  O2382     0.67444      .   S
    Zr32   O2383     0.54013      .   S
    Zr30   O2383     0.54013      .   S
    Zr756  O2384     0.67167      .   S
    Zr755  O2384     0.67167      .   S
    Zr158  O2385     0.67159      .   S
    Zr157  O2385     0.67159      .   S
    Zr680  O2386     0.67135      .   S
    Zr676  O2386     0.67135      .   S
    Zr56   O2387     0.67433      .   S
    Zr52   O2387     0.67433      .   S
    Zr760  O2388     0.54052      .   S
    Zr758  O2388     0.54052      .   S
    Zr54   O2389     0.67182      .   S
    Zr53   O2389     0.67182      .   S
    Zr132  O2390     0.67552      .   S
    Zr131  O2390     0.67552      .   S
    Zr782  O2391     0.67322      .   S
    Zr781  O2391     0.67322      .   S
    Zr784  O2392     0.67268      .   S
    Zr780  O2392     0.67268      .   S
    Zr28   O2393     0.67184      .   S
    Zr27   O2393     0.67184      .   S
    Zr654  O2394     0.67438      .   S
    Zr650  O2394     0.67438      .   S
    Zr652  O2395     0.67198      .   S
    Zr651  O2395     0.67198      .   S
    Zr136  O2396     0.53957      .   S
    Zr134  O2396     0.53957      .   S
    Zr758  O2397     0.67372      .   S
    Zr754  O2397     0.67372      .   S
    Zr30   O2398     0.67367      .   S
    Zr26   O2398     0.67367      .   S
    Zr134  O2399     0.66983      .   S
    Zr130  O2399     0.66983      .   S
    Zr677  O2400     0.65610      .   S
    Zr676  O2400     0.65610      .   S
    Zr677  O2401     0.97478      .   S
    Zr683  O2401     0.97478      .   S
    Zr755  O2402     0.65702      .   S
    Zr754  O2402     0.65702      .   S
    Zr755  O2403     0.96531      .   S
    Zr761  O2403     0.96531      .   S
    Zr156  O2404     0.65663      .   S
    Zr157  O2404     0.65663      .   S
    Zr156  O2405     0.97978      .   S
    Zr164  O2405     0.97978      .   S
    Zr676  O2406     0.96891      .   S
    Zr684  O2406     0.96891      .   S
    Zr157  O2407     0.96783      .   S
    Zr163  O2407     0.96783      .   S
    Zr52   O2408     0.65637      .   S
    Zr53   O2408     0.65637      .   S
    Zr52   O2409     0.97796      .   S
    Zr60   O2409     0.97796      .   S
    Zr53   O2410     0.97007      .   S
    Zr59   O2410     0.97007      .   S
    Zr754  O2411     0.97794      .   S
    Zr762  O2411     0.97794      .   S
    Zr131  O2412     0.65590      .   S
    Zr130  O2412     0.65590      .   S
    Zr131  O2413     0.97940      .   S
    Zr137  O2413     0.97940      .   S
    Zr27   O2414     0.65677      .   S
    Zr26   O2414     0.65677      .   S
    Zr27   O2415     0.96631      .   S
    Zr33   O2415     0.96631      .   S
    Zr781  O2416     0.65682      .   S
    Zr780  O2416     0.65682      .   S
    Zr781  O2417     0.97331      .   S
    Zr787  O2417     0.97331      .   S
    Zr26   O2418     0.98076      .   S
    Zr34   O2418     0.98076      .   S
    Zr780  O2419     0.97482      .   S
    Zr788  O2419     0.97482      .   S
    Zr650  O2420     0.65690      .   S
    Zr651  O2420     0.65690      .   S
    Zr650  O2421     0.97956      .   S
    Zr658  O2421     0.97956      .   S
    Zr651  O2422     0.96999      .   S
    Zr657  O2422     0.96999      .   S
    Zr130  O2423     0.96538      .   S
    Zr138  O2423     0.96538      .   S
    Zr761  O2424     0.96600      .   S
    Zr764  O2424     0.96600      .   S
    Zr683  O2425     0.97379      .   S
    Zr686  O2425     0.97379      .   S
    Zr137  O2426     0.97838      .   S
    Zr140  O2426     0.97838      .   S
    Zr164  O2427     1.02958      .   S
    Zr180  O2427     1.02958      .   S
    Zr164  O2428     0.99119      .   S
    Zr174  O2428     0.99119      .   S
    Zr164  O2429     1.02948      .   S
    Zr181  O2429     1.02948      .   S
    Zr60   O2430     1.02954      .   S
    Zr76   O2430     1.02954      .   S
    Zr60   O2431     0.98976      .   S
    Zr70   O2431     0.98976      .   S
    Zr60   O2432     1.03142      .   S
    Zr77   O2432     1.03142      .   S
    Zr163  O2433     0.96885      .   S
    Zr166  O2433     0.96885      .   S
    Zr59   O2434     0.97039      .   S
    Zr62   O2434     0.97039      .   S
    Zr33   O2435     0.96709      .   S
    Zr36   O2435     0.96709      .   S
    Zr684  O2436     0.97984      .   S
    Zr694  O2436     0.97984      .   S
    Zr762  O2437     1.03221      .   S
    Zr778  O2437     1.03221      .   S
    Zr762  O2438     1.02879      .   S
    Zr779  O2438     1.02879      .   S
    Zr762  O2439     0.98912      .   S
    Zr772  O2439     0.98912      .   S
    Zr787  O2440     0.97356      .   S
    Zr790  O2440     0.97356      .   S
    Zr34   O2441     1.02936      .   S
    Zr50   O2441     1.02936      .   S
    Zr34   O2442     0.99066      .   S
    Zr44   O2442     0.99066      .   S
    Zr34   O2443     1.03064      .   S
    Zr51   O2443     1.03064      .   S
    Zr657  O2444     0.97047      .   S
    Zr660  O2444     0.97047      .   S
    Zr658  O2445     1.03199      .   S
    Zr674  O2445     1.03199      .   S
    Zr658  O2446     0.99086      .   S
    Zr668  O2446     0.99086      .   S
    Zr658  O2447     1.03090      .   S
    Zr675  O2447     1.03090      .   S
    Zr138  O2448     1.02399      .   S
    Zr154  O2448     1.02399      .   S
    Zr138  O2449     0.97724      .   S
    Zr148  O2449     0.97724      .   S
    Zr788  O2450     1.03298      .   S
    Zr805  O2450     1.03298      .   S
    Zr788  O2451     0.98605      .   S
    Zr798  O2451     0.98605      .   S
    Zr700  O2452     1.02640      .   S
    Zr685  O2452     1.02640      .   S
    Zr804  O2453     1.03325      .   S
    Zr789  O2453     1.03325      .   S
    Zr770  O2454     0.54059      .   S
    Zr768  O2454     0.54059      .   S
    Zr692  O2455     0.53979      .   S
    Zr690  O2455     0.53979      .   S
    Zr172  O2456     0.54029      .   S
    Zr170  O2456     0.54029      .   S
    Zr42   O2457     0.54019      .   S
    Zr40   O2457     0.54019      .   S
    Zr796  O2458     0.53979      .   S
    Zr794  O2458     0.53979      .   S
    Zr68   O2459     0.53962      .   S
    Zr66   O2459     0.53962      .   S
    Zr666  O2460     0.53987      .   S
    Zr664  O2460     0.53987      .   S
    Zr74   O2461     0.53982      .   S
    Zr71   O2461     0.53982      .   S
    Zr178  O2462     0.54038      .   S
    Zr175  O2462     0.54038      .   S
    Zr146  O2463     0.54036      .   S
    Zr144  O2463     0.54036      .   S
    Zr48   O2464     0.54005      .   S
    Zr45   O2464     0.54005      .   S
    Zr776  O2465     0.53997      .   S
    Zr773  O2465     0.53997      .   S
    Zr686  O2466     0.67297      .   S
    Zr690  O2466     0.67297      .   S
    Zr686  O2467     0.65706      .   S
    Zr687  O2467     0.65706      .   S
    Zr672  O2468     0.53997      .   S
    Zr669  O2468     0.53997      .   S
    Zr698  O2469     0.54023      .   S
    Zr695  O2469     0.54023      .   S
    Zr764  O2470     0.67198      .   S
    Zr768  O2470     0.67198      .   S
    Zr764  O2471     0.65628      .   S
    Zr765  O2471     0.65628      .   S
    Zr802  O2472     0.53958      .   S
    Zr799  O2472     0.53958      .   S
    Zr166  O2473     0.67236      .   S
    Zr170  O2473     0.67236      .   S
    Zr166  O2474     0.65609      .   S
    Zr167  O2474     0.65609      .   S
    Zr152  O2475     0.53966      .   S
    Zr149  O2475     0.53966      .   S
    Zr690  O2476     0.69348      .   S
    Zr689  O2476     0.69348      .   S
    Zr36   O2477     0.67196      .   S
    Zr40   O2477     0.67196      .   S
    Zr36   O2478     0.65657      .   S
    Zr37   O2478     0.65657      .   S
    Zr140  O2479     0.67470      .   S
    Zr144  O2479     0.67470      .   S
    Zr140  O2480     0.65716      .   S
    Zr141  O2480     0.65716      .   S
    Zr62   O2481     0.67257      .   S
    Zr66   O2481     0.67257      .   S
    Zr62   O2482     0.65611      .   S
    Zr63   O2482     0.65611      .   S
    Zr70   O2483     0.67467      .   S
    Zr71   O2483     0.67467      .   S
    Zr70   O2484     0.65948      .   S
    Zr69   O2484     0.65948      .   S
    Zr768  O2485     0.69323      .   S
    Zr767  O2485     0.69323      .   S
    Zr790  O2486     0.67359      .   S
    Zr794  O2486     0.67359      .   S
    Zr790  O2487     0.65653      .   S
    Zr791  O2487     0.65653      .   S
    Zr174  O2488     0.67467      .   S
    Zr175  O2488     0.67467      .   S
    Zr174  O2489     0.66012      .   S
    Zr173  O2489     0.66012      .   S
    Zr701  O2490     1.02699      .   S
    Zr685  O2490     1.02699      .   S
    Zr660  O2491     0.67292      .   S
    Zr664  O2491     0.67292      .   S
    Zr660  O2492     0.65645      .   S
    Zr661  O2492     0.65645      .   S
    Zr170  O2493     0.69266      .   S
    Zr169  O2493     0.69266      .   S
    Zr694  O2494     0.67179      .   S
    Zr695  O2494     0.67179      .   S
    Zr694  O2495     0.65962      .   S
    Zr693  O2495     0.65962      .   S
    Zr148  O2496     0.67170      .   S
    Zr149  O2496     0.67170      .   S
    Zr148  O2497     0.65838      .   S
    Zr147  O2497     0.65838      .   S
    Zr155  O2498     1.02160      .   S
    Zr139  O2498     1.02160      .   S
    Zr44   O2499     0.67393      .   S
    Zr45   O2499     0.67393      .   S
    Zr44   O2500     0.66013      .   S
    Zr43   O2500     0.66013      .   S
    Zr40   O2501     0.69282      .   S
    Zr39   O2501     0.69282      .   S
    Zr772  O2502     0.67364      .   S
    Zr773  O2502     0.67364      .   S
    Zr772  O2503     0.65957      .   S
    Zr771  O2503     0.65957      .   S
    Zr794  O2504     0.69542      .   S
    Zr793  O2504     0.69542      .   S
    Zr668  O2505     0.67437      .   S
    Zr669  O2505     0.67437      .   S
    Zr668  O2506     0.66041      .   S
    Zr667  O2506     0.66041      .   S
    Zr66   O2507     0.69276      .   S
    Zr65   O2507     0.69276      .   S
    Zr798  O2508     0.67338      .   S
    Zr799  O2508     0.67338      .   S
    Zr798  O2509     0.65966      .   S
    Zr797  O2509     0.65966      .   S
    Zr71   O2510     0.69443      .   S
    Zr72   O2510     0.69443      .   S
    Zr664  O2511     0.69254      .   S
    Zr663  O2511     0.69254      .   S
    Zr144  O2512     0.69552      .   S
    Zr143  O2512     0.69552      .   S
    Zr175  O2513     0.69431      .   S
    Zr176  O2513     0.69431      .   S
    Zr45   O2514     0.69398      .   S
    Zr46   O2514     0.69398      .   S
    Zr695  O2515     0.68990      .   S
    Zr696  O2515     0.68990      .   S
    Zr773  O2516     0.69441      .   S
    Zr774  O2516     0.69441      .   S
    Zr669  O2517     0.69408      .   S
    Zr670  O2517     0.69408      .   S
    Zr149  O2518     0.69115      .   S
    Zr150  O2518     0.69115      .   S
    Zr799  O2519     0.69336      .   S
    Zr800  O2519     0.69336      .   S
    Zr139  O2520     0.97028      .   S
    Zr141  O2520     0.97028      .   S
    Zr139  O2521     0.98430      .   S
    Zr147  O2521     0.98430      .   S
    Zr687  O2522     0.97673      .   S
    Zr685  O2522     0.97673      .   S
    Zr687  O2523     0.67335      .   S
    Zr688  O2523     0.67335      .   S
    Zr141  O2524     0.67144      .   S
    Zr142  O2524     0.67144      .   S
    Zr147  O2525     0.67418      .   S
    Zr151  O2525     0.67418      .   S
    Zr167  O2526     0.97313      .   S
    Zr165  O2526     0.97313      .   S
    Zr167  O2527     0.67298      .   S
    Zr168  O2527     0.67298      .   S
    Zr63   O2528     0.97278      .   S
    Zr61   O2528     0.97278      .   S
    Zr63   O2529     0.67315      .   S
    Zr64   O2529     0.67315      .   S
    Zr69   O2530     0.98377      .   S
    Zr61   O2530     0.98377      .   S
    Zr69   O2531     0.67231      .   S
    Zr73   O2531     0.67231      .   S
    Zr765  O2532     0.97333      .   S
    Zr763  O2532     0.97333      .   S
    Zr765  O2533     0.67245      .   S
    Zr766  O2533     0.67245      .   S
    Zr37   O2534     0.97635      .   S
    Zr35   O2534     0.97635      .   S
    Zr37   O2535     0.67286      .   S
    Zr38   O2535     0.67286      .   S
    Zr173  O2536     0.98363      .   S
    Zr165  O2536     0.98363      .   S
    Zr173  O2537     0.67224      .   S
    Zr177  O2537     0.67224      .   S
    Zr791  O2538     0.97495      .   S
    Zr789  O2538     0.97495      .   S
    Zr791  O2539     0.67265      .   S
    Zr792  O2539     0.67265      .   S
    Zr685  O2540     0.98913      .   S
    Zr693  O2540     0.98913      .   S
    Zr693  O2541     0.67489      .   S
    Zr697  O2541     0.67489      .   S
    Zr661  O2542     0.97645      .   S
    Zr659  O2542     0.97645      .   S
    Zr661  O2543     0.67356      .   S
    Zr662  O2543     0.67356      .   S
    Zr43   O2544     0.98614      .   S
    Zr35   O2544     0.98614      .   S
    Zr43   O2545     0.67244      .   S
    Zr47   O2545     0.67244      .   S
    Zr771  O2546     0.98340      .   S
    Zr763  O2546     0.98340      .   S
    Zr771  O2547     0.67224      .   S
    Zr775  O2547     0.67224      .   S
    Zr667  O2548     0.98710      .   S
    Zr659  O2548     0.98710      .   S
    Zr667  O2549     0.67296      .   S
    Zr671  O2549     0.67296      .   S
    Zr689  O2550     0.69427      .   S
    Zr688  O2550     0.69427      .   S
    Zr797  O2551     0.98677      .   S
    Zr789  O2551     0.98677      .   S
    Zr797  O2552     0.67361      .   S
    Zr801  O2552     0.67361      .   S
    Zr169  O2553     0.69406      .   S
    Zr168  O2553     0.69406      .   S
    Zr767  O2554     0.69375      .   S
    Zr766  O2554     0.69375      .   S
    Zr39   O2555     0.69380      .   S
    Zr38   O2555     0.69380      .   S
    Zr793  O2556     0.69546      .   S
    Zr792  O2556     0.69546      .   S
    Zr65   O2557     0.69365      .   S
    Zr64   O2557     0.69365      .   S
    Zr663  O2558     0.69474      .   S
    Zr662  O2558     0.69474      .   S
    Zr72   O2559     0.69235      .   S
    Zr73   O2559     0.69235      .   S
    Zr143  O2560     0.69298      .   S
    Zr142  O2560     0.69298      .   S
    Zr176  O2561     0.69194      .   S
    Zr177  O2561     0.69194      .   S
    Zr150  O2562     0.69400      .   S
    Zr151  O2562     0.69400      .   S
    Zr46   O2563     0.69250      .   S
    Zr47   O2563     0.69250      .   S
    Zr696  O2564     0.69345      .   S
    Zr697  O2564     0.69345      .   S
    Zr670  O2565     0.69306      .   S
    Zr671  O2565     0.69306      .   S
    Zr774  O2566     0.69260      .   S
    Zr775  O2566     0.69260      .   S
    Zr688  O2567     0.54019      .   S
    Zr691  O2567     0.54019      .   S
    Zr800  O2568     0.69361      .   S
    Zr801  O2568     0.69361      .   S
    Zr142  O2569     0.53998      .   S
    Zr145  O2569     0.53998      .   S
    Zr168  O2570     0.54030      .   S
    Zr171  O2570     0.54030      .   S
    Zr151  O2571     0.54059      .   S
    Zr153  O2571     0.54059      .   S
    Zr64   O2572     0.54032      .   S
    Zr67   O2572     0.54032      .   S
    Zr73   O2573     0.53993      .   S
    Zr75   O2573     0.53993      .   S
    Zr38   O2574     0.54022      .   S
    Zr41   O2574     0.54022      .   S
    Zr792  O2575     0.53988      .   S
    Zr795  O2575     0.53988      .   S
    Zr766  O2576     0.54045      .   S
    Zr769  O2576     0.54045      .   S
    Zr177  O2577     0.53989      .   S
    Zr179  O2577     0.53989      .   S
    Zr662  O2578     0.54012      .   S
    Zr665  O2578     0.54012      .   S
    Zr47   O2579     0.53979      .   S
    Zr49   O2579     0.53979      .   S
    Zr697  O2580     0.54043      .   S
    Zr699  O2580     0.54043      .   S
    Zr671  O2581     0.53993      .   S
    Zr673  O2581     0.53993      .   S
    Zr775  O2582     0.53939      .   S
    Zr777  O2582     0.53939      .   S
    Zr801  O2583     0.53995      .   S
    Zr803  O2583     0.53995      .   S
    Zr916  O2584     0.63529      .   S
    Zr917  O2584     0.63529      .   S
    Zr916  O2585     0.92661      .   S
    Zr987  O2585     0.92661      .   S
    Zr949  O2586     0.63513      .   S
    Zr950  O2586     0.63513      .   S
    Zr949  O2587     0.92770      .   S
    Zr987  O2587     0.92770  1_545   S
    Zr970  O2588     0.63563      .   S
    Zr971  O2588     0.63563      .   S
    Zr970  O2589     0.92823      .   S
    Zr997  O2589     0.92823  1_455   S
    Zr931  O2590     0.63578      .   S
    Zr932  O2590     0.63578      .   S
    Zr931  O2591     0.92860      .   S
    Zr997  O2591     0.92860      .   S
    Zr1340 O2592     0.63514      .   S
    Zr1341 O2592     0.63514      .   S
    Zr1340 O2593     0.92624      .   S
    Zr1411 O2593     0.92624      .   S
    Zr1373 O2594     0.63582      .   S
    Zr1374 O2594     0.63582      .   S
    Zr1373 O2595     0.92887      .   S
    Zr1411 O2595     0.92887      .   S
    Zr952  O2596     0.63570      .   S
    Zr953  O2596     0.63570      .   S
    Zr952  O2597     0.93035      .   S
    Zr985  O2597     0.93035  1_565   S
    Zr934  O2598     0.63506      .   S
    Zr935  O2598     0.63506      .   S
    Zr934  O2599     0.92567      .   S
    Zr999  O2599     0.92567      .   S
    Zr913  O2600     0.63519      .   S
    Zr914  O2600     0.63519      .   S
    Zr913  O2601     0.92624      .   S
    Zr985  O2601     0.92624      .   S
    Zr967  O2602     0.63537      .   S
    Zr968  O2602     0.63537      .   S
    Zr967  O2603     0.92706      .   S
    Zr999  O2603     0.92706  1_655   S
    Zr1391 O2604     0.63494      .   S
    Zr1392 O2604     0.63494      .   S
    Zr1391 O2605     0.92685      .   S
    Zr1415 O2605     0.92685      .   S
    Zr1376 O2606     0.63557      .   S
    Zr1377 O2606     0.63557      .   S
    Zr1376 O2607     0.93151      .   S
    Zr1409 O2607     0.93151      .   S
    Zr1337 O2608     0.63538      .   S
    Zr1338 O2608     0.63538      .   S
    Zr1337 O2609     0.92790      .   S
    Zr1409 O2609     0.92790      .   S
    Zr1358 O2610     0.63566      .   S
    Zr1359 O2610     0.63566      .   S
    Zr1358 O2611     0.92735      .   S
    Zr1415 O2611     0.92735      .   S
    Zr1355 O2612     0.63491      .   S
    Zr1356 O2612     0.63491      .   S
    Zr1355 O2613     0.92554      .   S
    Zr1413 O2613     0.92554      .   S
    Zr1394 O2614     0.63589      .   S
    Zr1395 O2614     0.63589      .   S
    Zr1394 O2615     0.92785      .   S
    Zr1413 O2615     0.92785      .   S
    Zr917  O2616     0.63521      .   S
    Zr915  O2616     0.63521      .   S
    Zr950  O2617     0.63579      .   S
    Zr948  O2617     0.63579      .   S
    Zr971  O2618     0.63535      .   S
    Zr969  O2618     0.63535      .   S
    Zr932  O2619     0.63480      .   S
    Zr930  O2619     0.63480      .   S
    Zr1341 O2620     0.63537      .   S
    Zr1339 O2620     0.63537      .   S
    Zr1374 O2621     0.63446      .   S
    Zr1372 O2621     0.63446      .   S
    Zr953  O2622     0.63502      .   S
    Zr951  O2622     0.63502      .   S
    Zr935  O2623     0.63508      .   S
    Zr933  O2623     0.63508      .   S
    Zr914  O2624     0.63593      .   S
    Zr912  O2624     0.63593      .   S
    Zr1392 O2625     0.63515      .   S
    Zr1390 O2625     0.63515      .   S
    Zr968  O2626     0.63509      .   S
    Zr966  O2626     0.63509      .   S
    Zr1377 O2627     0.63544      .   S
    Zr1375 O2627     0.63544      .   S
    Zr1338 O2628     0.63490      .   S
    Zr1336 O2628     0.63490      .   S
    Zr1356 O2629     0.63585      .   S
    Zr1354 O2629     0.63585      .   S
    Zr1359 O2630     0.63527      .   S
    Zr1357 O2630     0.63527      .   S
    Zr1395 O2631     0.63478      .   S
    Zr1393 O2631     0.63478      .   S
    Zr987  O2632     0.92725      .   S
    Zr973  O2632     0.92725      .   S
    Zr987  O2633     0.92557  1_545   S
    Zr940  O2633     0.92557      .   S
    Zr997  O2634     0.92874  1_455   S
    Zr919  O2634     0.92874      .   S
    Zr997  O2635     0.92819      .   S
    Zr958  O2635     0.92819      .   S
    Zr1411 O2636     0.92585      .   S
    Zr1364 O2636     0.92585      .   S
    Zr1411 O2637     0.92869      .   S
    Zr1397 O2637     0.92869      .   S
    Zr999  O2638     0.92731      .   S
    Zr955  O2638     0.92731      .   S
    Zr999  O2639     0.92596  1_655   S
    Zr922  O2639     0.92596      .   S
    Zr985  O2640     0.92569  1_565   S
    Zr937  O2640     0.92569      .   S
    Zr985  O2641     0.92958      .   S
    Zr976  O2641     0.92958      .   S
    Zr1409 O2642     0.92750      .   S
    Zr1361 O2642     0.92750      .   S
    Zr1409 O2643     0.93116      .   S
    Zr1400 O2643     0.93116      .   S
    Zr1415 O2644     0.92818      .   S
    Zr1346 O2644     0.92818      .   S
    Zr1415 O2645     0.92743      .   S
    Zr1379 O2645     0.92743      .   S
    Zr1413 O2646     0.92632      .   S
    Zr1343 O2646     0.92632      .   S
    Zr1413 O2647     0.92787      .   S
    Zr1382 O2647     0.92787      .   S
    Zr915  O2648     0.92664      .   S
    Zr986  O2648     0.92664      .   S
    Zr948  O2649     0.92737      .   S
    Zr986  O2649     0.92737  1_545   S
    Zr969  O2650     0.92714      .   S
    Zr996  O2650     0.92714  1_455   S
    Zr930  O2651     0.92453      .   S
    Zr996  O2651     0.92453      .   S
    Zr1339 O2652     0.92733      .   S
    Zr1410 O2652     0.92733      .   S
    Zr1372 O2653     0.92297      .   S
    Zr1410 O2653     0.92297      .   S
    Zr951  O2654     0.92480      .   S
    Zr984  O2654     0.92480  1_565   S
    Zr912  O2655     0.92906      .   S
    Zr984  O2655     0.92906      .   S
    Zr933  O2656     0.92583      .   S
    Zr998  O2656     0.92583      .   S
    Zr1390 O2657     0.92582      .   S
    Zr1414 O2657     0.92582      .   S
    Zr966  O2658     0.92656      .   S
    Zr998  O2658     0.92656  1_655   S
    Zr1375 O2659     0.92737      .   S
    Zr1408 O2659     0.92737      .   S
    Zr1336 O2660     0.92387      .   S
    Zr1408 O2660     0.92387      .   S
    Zr1357 O2661     0.92708      .   S
    Zr1414 O2661     0.92708      .   S
    Zr1354 O2662     0.92749      .   S
    Zr1412 O2662     0.92749      .   S
    Zr973  O2663     0.63545      .   S
    Zr974  O2663     0.63545      .   S
    Zr1393 O2664     0.92324      .   S
    Zr1412 O2664     0.92324      .   S
    Zr940  O2665     0.63543      .   S
    Zr941  O2665     0.63543      .   S
    Zr919  O2666     0.63575      .   S
    Zr920  O2666     0.63575      .   S
    Zr958  O2667     0.63551      .   S
    Zr959  O2667     0.63551      .   S
    Zr1364 O2668     0.63515      .   S
    Zr1365 O2668     0.63515      .   S
    Zr1397 O2669     0.63540      .   S
    Zr1398 O2669     0.63540      .   S
    Zr955  O2670     0.63507      .   S
    Zr956  O2670     0.63507      .   S
    Zr937  O2671     0.63521      .   S
    Zr938  O2671     0.63521      .   S
    Zr922  O2672     0.63543      .   S
    Zr923  O2672     0.63543      .   S
    Zr1346 O2673     0.63570      .   S
    Zr1347 O2673     0.63570      .   S
    Zr976  O2674     0.63601      .   S
    Zr977  O2674     0.63601      .   S
    Zr1361 O2675     0.63543      .   S
    Zr1362 O2675     0.63543      .   S
    Zr1400 O2676     0.63632      .   S
    Zr1401 O2676     0.63632      .   S
    Zr1379 O2677     0.63543      .   S
    Zr1380 O2677     0.63543      .   S
    Zr1343 O2678     0.63520      .   S
    Zr1344 O2678     0.63520      .   S
    Zr1382 O2679     0.63561      .   S
    Zr1383 O2679     0.63561      .   S
    Zr986  O2680     0.92761      .   S
    Zr972  O2680     0.92761      .   S
    Zr986  O2681     0.92689  1_545   S
    Zr939  O2681     0.92689      .   S
    Zr996  O2682     0.92447  1_455   S
    Zr918  O2682     0.92447      .   S
    Zr996  O2683     0.92702      .   S
    Zr957  O2683     0.92702      .   S
    Zr1410 O2684     0.92696      .   S
    Zr1363 O2684     0.92696      .   S
    Zr1410 O2685     0.92307      .   S
    Zr1396 O2685     0.92307      .   S
    Zr984  O2686     0.92930  1_565   S
    Zr936  O2686     0.92930      .   S
    Zr984  O2687     0.92479      .   S
    Zr975  O2687     0.92479      .   S
    Zr998  O2688     0.92652      .   S
    Zr954  O2688     0.92652      .   S
    Zr998  O2689     0.92552  1_655   S
    Zr921  O2689     0.92552      .   S
    Zr1408 O2690     0.92449      .   S
    Zr1360 O2690     0.92449      .   S
    Zr1408 O2691     0.92712      .   S
    Zr1399 O2691     0.92712      .   S
    Zr1414 O2692     0.92700      .   S
    Zr1345 O2692     0.92700      .   S
    Zr1414 O2693     0.92613      .   S
    Zr1378 O2693     0.92613      .   S
    Zr1412 O2694     0.92815      .   S
    Zr1342 O2694     0.92815      .   S
    Zr1412 O2695     0.92368      .   S
    Zr1381 O2695     0.92368      .   S
    Zr974  O2696     0.63536      .   S
    Zr972  O2696     0.63536      .   S
    Zr941  O2697     0.63522      .   S
    Zr939  O2697     0.63522      .   S
    Zr920  O2698     0.63505      .   S
    Zr918  O2698     0.63505      .   S
    Zr959  O2699     0.63562      .   S
    Zr957  O2699     0.63562      .   S
    Zr1365 O2700     0.63509      .   S
    Zr1363 O2700     0.63509      .   S
    Zr1398 O2701     0.63469      .   S
    Zr1396 O2701     0.63469      .   S
    Zr956  O2702     0.63554      .   S
    Zr954  O2702     0.63554      .   S
    Zr938  O2703     0.63566      .   S
    Zr936  O2703     0.63566      .   S
    Zr923  O2704     0.63504      .   S
    Zr921  O2704     0.63504      .   S
    Zr1347 O2705     0.63529      .   S
    Zr1345 O2705     0.63529      .   S
    Zr1362 O2706     0.63479      .   S
    Zr1360 O2706     0.63479      .   S
    Zr977  O2707     0.63477      .   S
    Zr975  O2707     0.63477      .   S
    Zr1401 O2708     0.63513      .   S
    Zr1399 O2708     0.63513      .   S
    Zr1380 O2709     0.63501      .   S
    Zr1378 O2709     0.63501      .   S
    Zr1344 O2710     0.63568      .   S
    Zr1342 O2710     0.63568      .   S
    Zr1383 O2711     0.63450      .   S
    Zr1381 O2711     0.63450      .   S
    Zr929  O2712     0.63512      .   S
    Zr928  O2712     0.63512      .   S
    Zr929  O2713     0.63573      .   S
    Zr927  O2713     0.63573      .   S
    Zr983  O2714     0.63530      .   S
    Zr982  O2714     0.63530      .   S
    Zr983  O2715     0.63555      .   S
    Zr981  O2715     0.63555      .   S
    Zr962  O2716     0.63541      .   S
    Zr961  O2716     0.63541      .   S
    Zr962  O2717     0.63532      .   S
    Zr960  O2717     0.63532      .   S
    Zr947  O2718     0.63521      .   S
    Zr946  O2718     0.63521      .   S
    Zr947  O2719     0.63551      .   S
    Zr945  O2719     0.63551      .   S
    Zr944  O2720     0.63531      .   S
    Zr942  O2720     0.63531      .   S
    Zr944  O2721     0.63526      .   S
    Zr943  O2721     0.63526      .   S
    Zr965  O2722     0.63543      .   S
    Zr963  O2722     0.63543      .   S
    Zr965  O2723     0.63551      .   S
    Zr964  O2723     0.63551      .   S
    Zr1386 O2724     0.63530      .   S
    Zr1385 O2724     0.63530      .   S
    Zr1386 O2725     0.63507      .   S
    Zr1384 O2725     0.63507      .   S
    Zr1353 O2726     0.63477      .   S
    Zr1352 O2726     0.63477      .   S
    Zr1353 O2727     0.63530      .   S
    Zr1351 O2727     0.63530      .   S
    Zr1404 O2728     0.63489      .   S
    Zr1403 O2728     0.63489      .   S
    Zr1404 O2729     0.63545      .   S
    Zr1402 O2729     0.63545      .   S
    Zr1368 O2730     0.63495      .   S
    Zr1367 O2730     0.63495      .   S
    Zr1368 O2731     0.63529      .   S
    Zr1366 O2731     0.63529      .   S
    Zr980  O2732     0.63534      .   S
    Zr978  O2732     0.63534      .   S
    Zr980  O2733     0.63528      .   S
    Zr979  O2733     0.63528      .   S
    Zr926  O2734     0.63494      .   S
    Zr924  O2734     0.63494      .   S
    Zr926  O2735     0.63590      .   S
    Zr925  O2735     0.63590      .   S
    Zr1371 O2736     0.63518      .   S
    Zr1369 O2736     0.63518      .   S
    Zr1371 O2737     0.63533      .   S
    Zr1370 O2737     0.63533      .   S
    Zr1389 O2738     0.63502      .   S
    Zr1387 O2738     0.63502      .   S
    Zr1389 O2739     0.63465      .   S
    Zr1388 O2739     0.63465      .   S
    Zr1407 O2740     0.63540      .   S
    Zr1405 O2740     0.63540      .   S
    Zr1407 O2741     0.63520      .   S
    Zr1406 O2741     0.63520      .   S
    Zr1350 O2742     0.63546      .   S
    Zr1348 O2742     0.63546      .   S
    Zr1350 O2743     0.63583      .   S
    Zr1349 O2743     0.63583      .   S
    Zr928  O2744     0.92767      .   S
    Zr993  O2744     0.92767      .   S
    Zr982  O2745     0.92860      .   S
    Zr993  O2745     0.92860      .   S
    Zr927  O2746     0.92854      .   S
    Zr992  O2746     0.92854      .   S
    Zr981  O2747     0.92682      .   S
    Zr992  O2747     0.92682      .   S
    Zr961  O2748     0.92712      .   S
    Zr995  O2748     0.92712      .   S
    Zr960  O2749     0.92692      .   S
    Zr994  O2749     0.92692      .   S
    Zr946  O2750     0.92594      .   S
    Zr995  O2750     0.92594      .   S
    Zr945  O2751     0.92742      .   S
    Zr994  O2751     0.92742      .   S
    Zr942  O2752     0.92761      .   S
    Zr988  O2752     0.92761      .   S
    Zr943  O2753     0.92700      .   S
    Zr989  O2753     0.92700      .   S
    Zr963  O2754     0.92712      .   S
    Zr988  O2754     0.92712      .   S
    Zr964  O2755     0.92865      .   S
    Zr989  O2755     0.92865      .   S
    Zr1385 O2756     0.92714      .   S
    Zr1497 O2756     0.92714      .   S
    Zr1384 O2757     0.92630      .   S
    Zr1496 O2757     0.92630  1_554   S
    Zr1352 O2758     0.92384      .   S
    Zr1499 O2758     0.92384      .   S
    Zr1403 O2759     0.92382      .   S
    Zr1499 O2759     0.92382      .   S
    Zr1367 O2760     0.92444      .   S
    Zr1497 O2760     0.92444      .   S
    Zr1351 O2761     0.92616      .   S
    Zr1498 O2761     0.92616  1_554   S
    Zr1402 O2762     0.92800      .   S
    Zr1498 O2762     0.92800  1_554   S
    Zr1366 O2763     0.92730      .   S
    Zr1496 O2763     0.92730  1_554   S
    Zr978  O2764     0.92600      .   S
    Zr990  O2764     0.92600  1_554   S
    Zr979  O2765     0.92766      .   S
    Zr991  O2765     0.92766  1_554   S
    Zr924  O2766     0.92492      .   S
    Zr990  O2766     0.92492  1_554   S
    Zr925  O2767     0.92901      .   S
    Zr991  O2767     0.92901  1_554   S
    Zr1369 O2768     0.92715      .   S
    Zr1494 O2768     0.92715  1_554   S
    Zr1370 O2769     0.92538      .   S
    Zr1495 O2769     0.92538  1_554   S
    Zr1387 O2770     0.92698      .   S
    Zr1494 O2770     0.92698  1_554   S
    Zr1388 O2771     0.92193      .   S
    Zr1495 O2771     0.92193  1_554   S
    Zr1348 O2772     0.92858      .   S
    Zr1492 O2772     0.92858  1_554   S
    Zr1405 O2773     0.92668      .   S
    Zr1492 O2773     0.92668  1_554   S
    Zr1406 O2774     0.92804      .   S
    Zr1493 O2774     0.92804  1_554   S
    Zr1349 O2775     0.92860      .   S
    Zr1493 O2775     0.92860  1_554   S
    Zr993  O2776     0.92790  1_556   S
    Zr881  O2776     0.92790      .   S
    Zr993  O2777     0.92783  1_556   S
    Zr863  O2777     0.92783      .   S
    Zr992  O2778     0.92713  1_556   S
    Zr880  O2778     0.92713      .   S
    Zr992  O2779     0.92869  1_556   S
    Zr862  O2779     0.92869      .   S
    Zr995  O2780     0.92554  1_556   S
    Zr848  O2780     0.92554      .   S
    Zr995  O2781     0.92643  1_556   S
    Zr899  O2781     0.92643      .   S
    Zr994  O2782     0.92716  1_556   S
    Zr847  O2782     0.92716      .   S
    Zr994  O2783     0.92703  1_556   S
    Zr898  O2783     0.92703      .   S
    Zr988  O2784     0.92780  1_556   S
    Zr901  O2784     0.92780      .   S
    Zr988  O2785     0.92749  1_556   S
    Zr844  O2785     0.92749      .   S
    Zr989  O2786     0.92854  1_556   S
    Zr902  O2786     0.92854      .   S
    Zr989  O2787     0.92758  1_556   S
    Zr845  O2787     0.92758      .   S
    Zr1497 O2788     0.92507  1_556   S
    Zr1432 O2788     0.92507      .   S
    Zr1497 O2789     0.92597  1_556   S
    Zr1486 O2789     0.92597      .   S
    Zr1499 O2790     0.92360  1_556   S
    Zr1450 O2790     0.92360      .   S
    Zr1499 O2791     0.92415  1_556   S
    Zr1465 O2791     0.92415      .   S
    Zr1496 O2792     0.92766      .   S
    Zr1431 O2792     0.92766      .   S
    Zr1496 O2793     0.92604      .   S
    Zr1485 O2793     0.92604      .   S
    Zr1498 O2794     0.92615      .   S
    Zr1449 O2794     0.92615      .   S
    Zr1498 O2795     0.92871      .   S
    Zr1464 O2795     0.92871      .   S
    Zr990  O2796     0.92429      .   S
    Zr865  O2796     0.92429      .   S
    Zr990  O2797     0.92620      .   S
    Zr883  O2797     0.92620      .   S
    Zr991  O2798     0.92705      .   S
    Zr884  O2798     0.92705      .   S
    Zr991  O2799     0.92999      .   S
    Zr866  O2799     0.92999      .   S
    Zr1494 O2800     0.92646      .   S
    Zr1482 O2800     0.92646      .   S
    Zr1494 O2801     0.92734      .   S
    Zr1428 O2801     0.92734      .   S
    Zr1495 O2802     0.92192      .   S
    Zr1483 O2802     0.92192      .   S
    Zr1495 O2803     0.92577      .   S
    Zr1429 O2803     0.92577      .   S
    Zr1492 O2804     0.92709      .   S
    Zr1467 O2804     0.92709      .   S
    Zr1492 O2805     0.92846      .   S
    Zr1446 O2805     0.92846      .   S
    Zr1493 O2806     0.92779      .   S
    Zr1468 O2806     0.92779      .   S
    Zr1493 O2807     0.92956      .   S
    Zr1447 O2807     0.92956      .   S
    Zr881  O2808     0.63569      .   S
    Zr882  O2808     0.63569      .   S
    Zr863  O2809     0.63538      .   S
    Zr864  O2809     0.63538      .   S
    Zr880  O2810     0.63510      .   S
    Zr882  O2810     0.63510      .   S
    Zr862  O2811     0.63556      .   S
    Zr864  O2811     0.63556      .   S
    Zr848  O2812     0.63524      .   S
    Zr849  O2812     0.63524      .   S
    Zr847  O2813     0.63507      .   S
    Zr849  O2813     0.63507      .   S
    Zr899  O2814     0.63523      .   S
    Zr900  O2814     0.63523      .   S
    Zr898  O2815     0.63562      .   S
    Zr900  O2815     0.63562      .   S
    Zr901  O2816     0.63501      .   S
    Zr903  O2816     0.63501      .   S
    Zr902  O2817     0.63559      .   S
    Zr903  O2817     0.63559      .   S
    Zr844  O2818     0.63552      .   S
    Zr846  O2818     0.63552      .   S
    Zr845  O2819     0.63547      .   S
    Zr846  O2819     0.63547      .   S
    Zr1432 O2820     0.63496      .   S
    Zr1433 O2820     0.63496      .   S
    Zr1450 O2821     0.63489      .   S
    Zr1451 O2821     0.63489      .   S
    Zr1486 O2822     0.63533      .   S
    Zr1487 O2822     0.63533      .   S
    Zr1465 O2823     0.63498      .   S
    Zr1466 O2823     0.63498      .   S
    Zr1431 O2824     0.63571      .   S
    Zr1433 O2824     0.63571      .   S
    Zr1485 O2825     0.63521      .   S
    Zr1487 O2825     0.63521      .   S
    Zr1449 O2826     0.63510      .   S
    Zr1451 O2826     0.63510      .   S
    Zr1464 O2827     0.63574      .   S
    Zr1466 O2827     0.63574      .   S
    Zr865  O2828     0.63516      .   S
    Zr867  O2828     0.63516      .   S
    Zr883  O2829     0.63531      .   S
    Zr885  O2829     0.63531      .   S
    Zr884  O2830     0.63493      .   S
    Zr885  O2830     0.63493      .   S
    Zr866  O2831     0.63523      .   S
    Zr867  O2831     0.63523      .   S
    Zr1483 O2832     0.63460      .   S
    Zr1484 O2832     0.63460      .   S
    Zr1482 O2833     0.63541      .   S
    Zr1484 O2833     0.63541      .   S
    Zr1429 O2834     0.63501      .   S
    Zr1430 O2834     0.63501      .   S
    Zr1428 O2835     0.63523      .   S
    Zr1430 O2835     0.63523      .   S
    Zr1467 O2836     0.63520      .   S
    Zr1469 O2836     0.63520      .   S
    Zr1446 O2837     0.63594      .   S
    Zr1448 O2837     0.63594      .   S
    Zr1468 O2838     0.63558      .   S
    Zr1469 O2838     0.63558      .   S
    Zr1447 O2839     0.63547      .   S
    Zr1448 O2839     0.63547      .   S
    Zr859  O2840     0.63535      .   S
    Zr861  O2840     0.63535      .   S
    Zr859  O2841     0.92744      .   S
    Zr906  O2841     0.92744      .   S
    Zr877  O2842     0.63535      .   S
    Zr879  O2842     0.63535      .   S
    Zr877  O2843     0.92621      .   S
    Zr908  O2843     0.92621      .   S
    Zr892  O2844     0.63530      .   S
    Zr894  O2844     0.63530      .   S
    Zr892  O2845     0.92708      .   S
    Zr906  O2845     0.92708  1_545   S
    Zr838  O2846     0.63549      .   S
    Zr840  O2846     0.63549      .   S
    Zr838  O2847     0.92758      .   S
    Zr908  O2847     0.92758  1_655   S
    Zr895  O2848     0.63531      .   S
    Zr897  O2848     0.63531      .   S
    Zr895  O2849     0.92842      .   S
    Zr904  O2849     0.92842  1_565   S
    Zr841  O2850     0.63519      .   S
    Zr843  O2850     0.63519      .   S
    Zr841  O2851     0.92567      .   S
    Zr910  O2851     0.92567      .   S
    Zr856  O2852     0.63532      .   S
    Zr858  O2852     0.63532      .   S
    Zr856  O2853     0.92725      .   S
    Zr904  O2853     0.92725      .   S
    Zr874  O2854     0.63561      .   S
    Zr876  O2854     0.63561      .   S
    Zr874  O2855     0.92704      .   S
    Zr910  O2855     0.92704  1_655   S
    Zr1458 O2856     0.63555      .   S
    Zr1460 O2856     0.63555      .   S
    Zr1458 O2857     0.92711      .   S
    Zr1502 O2857     0.92711      .   S
    Zr1425 O2858     0.63477      .   S
    Zr1427 O2858     0.63477      .   S
    Zr1425 O2859     0.92358      .   S
    Zr1502 O2859     0.92358      .   S
    Zr1422 O2860     0.63484      .   S
    Zr1424 O2860     0.63484      .   S
    Zr1422 O2861     0.92359      .   S
    Zr1500 O2861     0.92359      .   S
    Zr1443 O2862     0.63543      .   S
    Zr1445 O2862     0.63543      .   S
    Zr1443 O2863     0.92621      .   S
    Zr1490 O2863     0.92621      .   S
    Zr1476 O2864     0.63497      .   S
    Zr1478 O2864     0.63497      .   S
    Zr1476 O2865     0.92350      .   S
    Zr1490 O2865     0.92350      .   S
    Zr1461 O2866     0.63609      .   S
    Zr1463 O2866     0.63609      .   S
    Zr1461 O2867     0.93021      .   S
    Zr1500 O2867     0.93021      .   S
    Zr1440 O2868     0.63497      .   S
    Zr1442 O2868     0.63497      .   S
    Zr1440 O2869     0.92358      .   S
    Zr1488 O2869     0.92358      .   S
    Zr1479 O2870     0.63585      .   S
    Zr1481 O2870     0.63585      .   S
    Zr1479 O2871     0.92741      .   S
    Zr1488 O2871     0.92741      .   S
    Zr861  O2872     0.63600      .   S
    Zr860  O2872     0.63600      .   S
    Zr894  O2873     0.63558      .   S
    Zr893  O2873     0.63558      .   S
    Zr879  O2874     0.63566      .   S
    Zr878  O2874     0.63566      .   S
    Zr840  O2875     0.63593      .   S
    Zr839  O2875     0.63593      .   S
    Zr897  O2876     0.63492      .   S
    Zr896  O2876     0.63492      .   S
    Zr843  O2877     0.63553      .   S
    Zr842  O2877     0.63553      .   S
    Zr858  O2878     0.63519      .   S
    Zr857  O2878     0.63519      .   S
    Zr1460 O2879     0.63457      .   S
    Zr1459 O2879     0.63457      .   S
    Zr876  O2880     0.63515      .   S
    Zr875  O2880     0.63515      .   S
    Zr1427 O2881     0.63545      .   S
    Zr1426 O2881     0.63545      .   S
    Zr1424 O2882     0.63542      .   S
    Zr1423 O2882     0.63542      .   S
    Zr1445 O2883     0.63549      .   S
    Zr1444 O2883     0.63549      .   S
    Zr1478 O2884     0.63563      .   S
    Zr1477 O2884     0.63563      .   S
    Zr1463 O2885     0.63486      .   S
    Zr1462 O2885     0.63486      .   S
    Zr908  O2886     0.92770      .   S
    Zr850  O2886     0.92770      .   S
    Zr908  O2887     0.92642  1_655   S
    Zr889  O2887     0.92642      .   S
    Zr1442 O2888     0.63578      .   S
    Zr1441 O2888     0.63578      .   S
    Zr906  O2889     0.92756      .   S
    Zr868  O2889     0.92756      .   S
    Zr906  O2890     0.92745  1_545   S
    Zr835  O2890     0.92745      .   S
    Zr1481 O2891     0.63518      .   S
    Zr1480 O2891     0.63518      .   S
    Zr904  O2892     0.92725  1_565   S
    Zr832  O2892     0.92725      .   S
    Zr904  O2893     0.92832      .   S
    Zr871  O2893     0.92832      .   S
    Zr910  O2894     0.92707      .   S
    Zr886  O2894     0.92707      .   S
    Zr910  O2895     0.92583  1_655   S
    Zr853  O2895     0.92583      .   S
    Zr1502 O2896     0.92401      .   S
    Zr1437 O2896     0.92401      .   S
    Zr1502 O2897     0.92783      .   S
    Zr1470 O2897     0.92783      .   S
    Zr1490 O2898     0.92403      .   S
    Zr1452 O2898     0.92403      .   S
    Zr1490 O2899     0.92742      .   S
    Zr1419 O2899     0.92742      .   S
    Zr1500 O2900     0.92379      .   S
    Zr1434 O2900     0.92379      .   S
    Zr1500 O2901     0.92964      .   S
    Zr1473 O2901     0.92964      .   S
    Zr1488 O2902     0.92424      .   S
    Zr1416 O2902     0.92424      .   S
    Zr1488 O2903     0.92736      .   S
    Zr1455 O2903     0.92736      .   S
    Zr860  O2904     0.93111      .   S
    Zr907  O2904     0.93111      .   S
    Zr893  O2905     0.92983      .   S
    Zr907  O2905     0.92983  1_545   S
    Zr878  O2906     0.93052      .   S
    Zr909  O2906     0.93052      .   S
    Zr839  O2907     0.93064      .   S
    Zr909  O2907     0.93064  1_655   S
    Zr896  O2908     0.92435      .   S
    Zr905  O2908     0.92435  1_565   S
    Zr842  O2909     0.92859      .   S
    Zr911  O2909     0.92859      .   S
    Zr857  O2910     0.92624      .   S
    Zr905  O2910     0.92624      .   S
    Zr1459 O2911     0.92591      .   S
    Zr1503 O2911     0.92591      .   S
    Zr1426 O2912     0.92849      .   S
    Zr1503 O2912     0.92849      .   S
    Zr875  O2913     0.92586      .   S
    Zr911  O2913     0.92586  1_655   S
    Zr1423 O2914     0.92971      .   S
    Zr1501 O2914     0.92971      .   S
    Zr1444 O2915     0.92725      .   S
    Zr1491 O2915     0.92725      .   S
    Zr1477 O2916     0.92995      .   S
    Zr1491 O2916     0.92995      .   S
    Zr1462 O2917     0.92696      .   S
    Zr1501 O2917     0.92696      .   S
    Zr850  O2918     0.63545      .   S
    Zr852  O2918     0.63545      .   S
    Zr889  O2919     0.63489      .   S
    Zr891  O2919     0.63489      .   S
    Zr868  O2920     0.63546      .   S
    Zr870  O2920     0.63546      .   S
    Zr832  O2921     0.63507      .   S
    Zr834  O2921     0.63507      .   S
    Zr1441 O2922     0.93007      .   S
    Zr1489 O2922     0.93007      .   S
    Zr886  O2923     0.63515      .   S
    Zr888  O2923     0.63515      .   S
    Zr835  O2924     0.63564      .   S
    Zr837  O2924     0.63564      .   S
    Zr871  O2925     0.63560      .   S
    Zr873  O2925     0.63560      .   S
    Zr1480 O2926     0.92852      .   S
    Zr1489 O2926     0.92852      .   S
    Zr1437 O2927     0.63446      .   S
    Zr1439 O2927     0.63446      .   S
    Zr853  O2928     0.63527      .   S
    Zr855  O2928     0.63527      .   S
    Zr1470 O2929     0.63533      .   S
    Zr1472 O2929     0.63533      .   S
    Zr1452 O2930     0.63478      .   S
    Zr1454 O2930     0.63478      .   S
    Zr1419 O2931     0.63531      .   S
    Zr1421 O2931     0.63531      .   S
    Zr1434 O2932     0.63460      .   S
    Zr1436 O2932     0.63460      .   S
    Zr1473 O2933     0.63586      .   S
    Zr1475 O2933     0.63586      .   S
    Zr1416 O2934     0.63499      .   S
    Zr1418 O2934     0.63499      .   S
    Zr1455 O2935     0.63502      .   S
    Zr1457 O2935     0.63502      .   S
    Zr907  O2936     0.92932      .   S
    Zr869  O2936     0.92932      .   S
    Zr907  O2937     0.93104  1_545   S
    Zr836  O2937     0.93104      .   S
    Zr909  O2938     0.93058      .   S
    Zr851  O2938     0.93058      .   S
    Zr909  O2939     0.92979  1_655   S
    Zr890  O2939     0.92979      .   S
    Zr905  O2940     0.92631  1_565   S
    Zr833  O2940     0.92631      .   S
    Zr905  O2941     0.92506      .   S
    Zr872  O2941     0.92506      .   S
    Zr911  O2942     0.92555      .   S
    Zr887  O2942     0.92555      .   S
    Zr911  O2943     0.92872  1_655   S
    Zr854  O2943     0.92872      .   S
    Zr1503 O2944     0.92728      .   S
    Zr1438 O2944     0.92728      .   S
    Zr1503 O2945     0.92484      .   S
    Zr1471 O2945     0.92484      .   S
    Zr1491 O2946     0.92973      .   S
    Zr1453 O2946     0.92973      .   S
    Zr1491 O2947     0.92693      .   S
    Zr1420 O2947     0.92693      .   S
    Zr1501 O2948     0.92922      .   S
    Zr1435 O2948     0.92922      .   S
    Zr1501 O2949     0.92656      .   S
    Zr1474 O2949     0.92656      .   S
    Zr870  O2950     0.63564      .   S
    Zr869  O2950     0.63564      .   S
    Zr852  O2951     0.63569      .   S
    Zr851  O2951     0.63569      .   S
    Zr891  O2952     0.63586      .   S
    Zr890  O2952     0.63586      .   S
    Zr834  O2953     0.63525      .   S
    Zr833  O2953     0.63525      .   S
    Zr837  O2954     0.63539      .   S
    Zr836  O2954     0.63539      .   S
    Zr888  O2955     0.63527      .   S
    Zr887  O2955     0.63527      .   S
    Zr1489 O2956     0.93088      .   S
    Zr1417 O2956     0.93088      .   S
    Zr1489 O2957     0.92974      .   S
    Zr1456 O2957     0.92974      .   S
    Zr1439 O2958     0.63606      .   S
    Zr1438 O2958     0.63606      .   S
    Zr873  O2959     0.63469      .   S
    Zr872  O2959     0.63469      .   S
    Zr855  O2960     0.63530      .   S
    Zr854  O2960     0.63530      .   S
    Zr1454 O2961     0.63574      .   S
    Zr1453 O2961     0.63574      .   S
    Zr1472 O2962     0.63493      .   S
    Zr1471 O2962     0.63493      .   S
    Zr1421 O2963     0.63536      .   S
    Zr1420 O2963     0.63536      .   S
    Zr1475 O2964     0.63544      .   S
    Zr1474 O2964     0.63544      .   S
    Zr1436 O2965     0.63584      .   S
    Zr1435 O2965     0.63584      .   S
    Zr1418 O2966     0.63566      .   S
    Zr1417 O2966     0.63566      .   S
    Zr1457 O2967     0.63559      .   S
    Zr1456 O2967     0.63559      .   S
    Zr361  O2968     0.53987      .   S
    Zr359  O2968     0.53987      .   S
    Zr249  O2969     0.54002      .   S
    Zr246  O2969     0.54002      .   S
    Zr283  O2970     0.54001      .   S
    Zr281  O2970     0.54001      .   S
    Zr569  O2971     0.54016      .   S
    Zr567  O2971     0.54016      .   S
    Zr465  O2972     0.54024      .   S
    Zr463  O2972     0.54024      .   S
    Zr275  O2973     0.53962      .   S
    Zr272  O2973     0.53962      .   S
    Zr379  O2974     0.54074      .   S
    Zr376  O2974     0.54074      .   S
    Zr491  O2975     0.54033      .   S
    Zr489  O2975     0.54033      .   S
    Zr353  O2976     0.53991      .   S
    Zr350  O2976     0.53991      .   S
    Zr587  O2977     0.53964      .   S
    Zr584  O2977     0.53964      .   S
    Zr257  O2978     0.53981      .   S
    Zr255  O2978     0.53981      .   S
    Zr595  O2979     0.53998      .   S
    Zr593  O2979     0.53998      .   S
    Zr561  O2980     0.54053      .   S
    Zr558  O2980     0.54053      .   S
    Zr483  O2981     0.54009      .   S
    Zr480  O2981     0.54009      .   S
    Zr387  O2982     0.54000      .   S
    Zr385  O2982     0.54000      .   S
    Zr457  O2983     0.53987      .   S
    Zr454  O2983     0.53987      .   S
    Zr359  O2984     0.69242      .   S
    Zr358  O2984     0.69242      .   S
    Zr359  O2985     0.67235      .   S
    Zr355  O2985     0.67235      .   S
    Zr463  O2986     0.69327      .   S
    Zr462  O2986     0.69327      .   S
    Zr463  O2987     0.67324      .   S
    Zr459  O2987     0.67324      .   S
    Zr272  O2988     0.69367      .   S
    Zr273  O2988     0.69367      .   S
    Zr272  O2989     0.67263      .   S
    Zr271  O2989     0.67263      .   S
    Zr281  O2990     0.69442      .   S
    Zr280  O2990     0.69442      .   S
    Zr281  O2991     0.67457      .   S
    Zr277  O2991     0.67457      .   S
    Zr567  O2992     0.69484      .   S
    Zr566  O2992     0.69484      .   S
    Zr567  O2993     0.67546      .   S
    Zr563  O2993     0.67546      .   S
    Zr246  O2994     0.69485      .   S
    Zr247  O2994     0.69485      .   S
    Zr246  O2995     0.67462      .   S
    Zr245  O2995     0.67462      .   S
    Zr350  O2996     0.69163      .   S
    Zr351  O2996     0.69163      .   S
    Zr350  O2997     0.67070      .   S
    Zr349  O2997     0.67070      .   S
    Zr489  O2998     0.69459      .   S
    Zr488  O2998     0.69459      .   S
    Zr489  O2999     0.67510      .   S
    Zr485  O2999     0.67510      .   S
    Zr584  O3000     0.69410      .   S
    Zr585  O3000     0.69410      .   S
    Zr584  O3001     0.67129      .   S
    Zr583  O3001     0.67129      .   S
    Zr376  O3002     0.69489      .   S
    Zr377  O3002     0.69489      .   S
    Zr376  O3003     0.67382      .   S
    Zr375  O3003     0.67382      .   S
    Zr593  O3004     0.69351      .   S
    Zr592  O3004     0.69351      .   S
    Zr593  O3005     0.67372      .   S
    Zr589  O3005     0.67372      .   S
    Zr255  O3006     0.69425      .   S
    Zr254  O3006     0.69425      .   S
    Zr255  O3007     0.67427      .   S
    Zr251  O3007     0.67427      .   S
    Zr385  O3008     0.69406      .   S
    Zr384  O3008     0.69406      .   S
    Zr385  O3009     0.67359      .   S
    Zr381  O3009     0.67359      .   S
    Zr558  O3010     0.69481      .   S
    Zr559  O3010     0.69481      .   S
    Zr558  O3011     0.67390      .   S
    Zr557  O3011     0.67390      .   S
    Zr480  O3012     0.69414      .   S
    Zr481  O3012     0.69414      .   S
    Zr480  O3013     0.67332      .   S
    Zr479  O3013     0.67332      .   S
    Zr454  O3014     0.69518      .   S
    Zr455  O3014     0.69518      .   S
    Zr454  O3015     0.67241      .   S
    Zr453  O3015     0.67241      .   S
    Zr358  O3016     0.69303      .   S
    Zr357  O3016     0.69303      .   S
    Zr462  O3017     0.69324      .   S
    Zr461  O3017     0.69324      .   S
    Zr273  O3018     0.69522      .   S
    Zr274  O3018     0.69522      .   S
    Zr566  O3019     0.69135      .   S
    Zr565  O3019     0.69135      .   S
    Zr351  O3020     0.69533      .   S
    Zr352  O3020     0.69533      .   S
    Zr280  O3021     0.69227      .   S
    Zr279  O3021     0.69227      .   S
    Zr247  O3022     0.69163      .   S
    Zr248  O3022     0.69163      .   S
    Zr488  O3023     0.69066      .   S
    Zr487  O3023     0.69066      .   S
    Zr585  O3024     0.69710      .   S
    Zr586  O3024     0.69710      .   S
    Zr384  O3025     0.69288      .   S
    Zr383  O3025     0.69288      .   S
    Zr592  O3026     0.69227      .   S
    Zr591  O3026     0.69227      .   S
    Zr377  O3027     0.69289      .   S
    Zr378  O3027     0.69289      .   S
    Zr254  O3028     0.69242      .   S
    Zr253  O3028     0.69242      .   S
    Zr481  O3029     0.69412      .   S
    Zr482  O3029     0.69412      .   S
    Zr559  O3030     0.69284      .   S
    Zr560  O3030     0.69284      .   S
    Zr347  O3031     0.98156      .   S
    Zr355  O3031     0.98156      .   S
    Zr347  O3032     0.96971      .   S
    Zr349  O3032     0.96971      .   S
    Zr455  O3033     0.69570      .   S
    Zr456  O3033     0.69570      .   S
    Zr269  O3034     0.97542      .   S
    Zr271  O3034     0.97542      .   S
    Zr269  O3035     0.98813      .   S
    Zr277  O3035     0.98813      .   S
    Zr269  O3036     1.02788      .   S
    Zr285  O3036     1.02788      .   S
    Zr269  O3037     1.02782      .   S
    Zr284  O3037     1.02782      .   S
    Zr355  O3038     0.65880      .   S
    Zr356  O3038     0.65880      .   S
    Zr271  O3039     0.65724      .   S
    Zr270  O3039     0.65724      .   S
    Zr349  O3040     0.65692      .   S
    Zr348  O3040     0.65692      .   S
    Zr459  O3041     0.98602      .   S
    Zr451  O3041     0.98602      .   S
    Zr459  O3042     0.65942      .   S
    Zr460  O3042     0.65942      .   S
    Zr243  O3043     0.97778      .   S
    Zr245  O3043     0.97778      .   S
    Zr243  O3044     0.98978      .   S
    Zr251  O3044     0.98978      .   S
    Zr243  O3045     1.03269      .   S
    Zr259  O3045     1.03269      .   S
    Zr243  O3046     1.03079      .   S
    Zr258  O3046     1.03079      .   S
    Zr451  O3047     0.97452      .   S
    Zr453  O3047     0.97452      .   S
    Zr277  O3048     0.65896      .   S
    Zr278  O3048     0.65896      .   S
    Zr555  O3049     0.99133      .   S
    Zr563  O3049     0.99133      .   S
    Zr555  O3050     0.97866      .   S
    Zr557  O3050     0.97866      .   S
    Zr555  O3051     1.02696      .   S
    Zr571  O3051     1.02696      .   S
    Zr555  O3052     1.02521      .   S
    Zr570  O3052     1.02521      .   S
    Zr581  O3053     0.97210      .   S
    Zr583  O3053     0.97210      .   S
    Zr581  O3054     0.98501      .   S
    Zr589  O3054     0.98501      .   S
    Zr581  O3055     1.02956      .   S
    Zr597  O3055     1.02956      .   S
    Zr581  O3056     1.02914      .   S
    Zr596  O3056     1.02914      .   S
    Zr477  O3057     0.98930      .   S
    Zr485  O3057     0.98930      .   S
    Zr477  O3058     0.97624      .   S
    Zr479  O3058     0.97624      .   S
    Zr477  O3059     1.02603      .   S
    Zr493  O3059     1.02603      .   S
    Zr477  O3060     1.02322      .   S
    Zr492  O3060     1.02322      .   S
    Zr563  O3061     0.65943      .   S
    Zr564  O3061     0.65943      .   S
    Zr245  O3062     0.65679      .   S
    Zr244  O3062     0.65679      .   S
    Zr485  O3063     0.65930      .   S
    Zr486  O3063     0.65930      .   S
    Zr583  O3064     0.65684      .   S
    Zr582  O3064     0.65684      .   S
    Zr589  O3065     0.65863      .   S
    Zr590  O3065     0.65863      .   S
    Zr251  O3066     0.65984      .   S
    Zr252  O3066     0.65984      .   S
    Zr557  O3067     0.65717      .   S
    Zr556  O3067     0.65717      .   S
    Zr381  O3068     0.98795      .   S
    Zr373  O3068     0.98795      .   S
    Zr381  O3069     0.65985      .   S
    Zr382  O3069     0.65985      .   S
    Zr453  O3070     0.65660      .   S
    Zr452  O3070     0.65660      .   S
    Zr479  O3071     0.65726      .   S
    Zr478  O3071     0.65726      .   S
    Zr375  O3072     0.97672      .   S
    Zr373  O3072     0.97672      .   S
    Zr375  O3073     0.65662      .   S
    Zr374  O3073     0.65662      .   S
    Zr373  O3074     1.01982      .   S
    Zr389  O3074     1.01982      .   S
    Zr357  O3075     0.67369      .   S
    Zr356  O3075     0.67369      .   S
    Zr357  O3076     0.53996      .   S
    Zr360  O3076     0.53996      .   S
    Zr461  O3077     0.67319      .   S
    Zr460  O3077     0.67319      .   S
    Zr461  O3078     0.53996      .   S
    Zr464  O3078     0.53996      .   S
    Zr274  O3079     0.67514      .   S
    Zr270  O3079     0.67514      .   S
    Zr274  O3080     0.54024      .   S
    Zr276  O3080     0.54024      .   S
    Zr352  O3081     0.67554      .   S
    Zr348  O3081     0.67554      .   S
    Zr352  O3082     0.54029      .   S
    Zr354  O3082     0.54029      .   S
    Zr363  O3083     1.02997      .   S
    Zr346  O3083     1.02997      .   S
    Zr383  O3084     0.67232      .   S
    Zr382  O3084     0.67232      .   S
    Zr383  O3085     0.53960      .   S
    Zr386  O3085     0.53960      .   S
    Zr565  O3086     0.67158      .   S
    Zr564  O3086     0.67158      .   S
    Zr565  O3087     0.53948      .   S
    Zr568  O3087     0.53948      .   S
    Zr279  O3088     0.67264      .   S
    Zr278  O3088     0.67264      .   S
    Zr279  O3089     0.53955      .   S
    Zr282  O3089     0.53955      .   S
    Zr586  O3090     0.67481      .   S
    Zr582  O3090     0.67481      .   S
    Zr586  O3091     0.54015      .   S
    Zr588  O3091     0.54015      .   S
    Zr487  O3092     0.67112      .   S
    Zr486  O3092     0.67112      .   S
    Zr487  O3093     0.53950      .   S
    Zr490  O3093     0.53950      .   S
    Zr248  O3094     0.67161      .   S
    Zr244  O3094     0.67161      .   S
    Zr248  O3095     0.53940      .   S
    Zr250  O3095     0.53940      .   S
    Zr356  O3096     0.98452      .   S
    Zr346  O3096     0.98452      .   S
    Zr591  O3097     0.67205      .   S
    Zr590  O3097     0.67205      .   S
    Zr591  O3098     0.53967      .   S
    Zr594  O3098     0.53967      .   S
    Zr460  O3099     0.98604      .   S
    Zr450  O3099     0.98604      .   S
    Zr467  O3100     1.03301      .   S
    Zr450  O3100     1.03301      .   S
    Zr348  O3101     0.97888      .   S
    Zr345  O3101     0.97888      .   S
    Zr270  O3102     0.97921      .   S
    Zr267  O3102     0.97921      .   S
    Zr253  O3103     0.67265      .   S
    Zr252  O3103     0.67265      .   S
    Zr253  O3104     0.53987      .   S
    Zr256  O3104     0.53987      .   S
    Zr378  O3105     0.67200      .   S
    Zr374  O3105     0.67200      .   S
    Zr378  O3106     0.54069      .   S
    Zr380  O3106     0.54069      .   S
    Zr278  O3107     0.98155      .   S
    Zr268  O3107     0.98155      .   S
    Zr456  O3108     0.67365      .   S
    Zr452  O3108     0.67365      .   S
    Zr456  O3109     0.54000      .   S
    Zr458  O3109     0.54000      .   S
    Zr482  O3110     0.67376      .   S
    Zr478  O3110     0.67376      .   S
    Zr482  O3111     0.53970      .   S
    Zr484  O3111     0.53970      .   S
    Zr560  O3112     0.67247      .   S
    Zr556  O3112     0.67247      .   S
    Zr560  O3113     0.53966      .   S
    Zr562  O3113     0.53966      .   S
    Zr564  O3114     0.98070      .   S
    Zr554  O3114     0.98070      .   S
    Zr582  O3115     0.97852      .   S
    Zr579  O3115     0.97852      .   S
    Zr486  O3116     0.97812      .   S
    Zr476  O3116     0.97812      .   S
    Zr244  O3117     0.96879      .   S
    Zr241  O3117     0.96879      .   S
    Zr382  O3118     0.98572      .   S
    Zr372  O3118     0.98572      .   S
    Zr590  O3119     0.98036      .   S
    Zr580  O3119     0.98036      .   S
    Zr252  O3120     0.98473      .   S
    Zr242  O3120     0.98473      .   S
    Zr452  O3121     0.97345      .   S
    Zr449  O3121     0.97345      .   S
    Zr556  O3122     0.97258      .   S
    Zr553  O3122     0.97258      .   S
    Zr478  O3123     0.97548      .   S
    Zr475  O3123     0.97548      .   S
    Zr374  O3124     0.96758      .   S
    Zr371  O3124     0.96758      .   S
    Zr362  O3125     1.03037      .   S
    Zr346  O3125     1.03037      .   S
    Zr466  O3126     1.03236      .   S
    Zr450  O3126     1.03236      .   S
    Zr388  O3127     1.02554      .   S
    Zr372  O3127     1.02554      .   S
    Zr345  O3128     0.97831      .   S
    Zr339  O3128     0.97831      .   S
    Zr346  O3129     0.97181      .   S
    Zr338  O3129     0.97181      .   S
    Zr267  O3130     0.97989      .   S
    Zr261  O3130     0.97989      .   S
    Zr450  O3131     0.97475      .   S
    Zr442  O3131     0.97475      .   S
    Zr268  O3132     0.96969      .   S
    Zr260  O3132     0.96969      .   S
    Zr579  O3133     0.97949      .   S
    Zr573  O3133     0.97949      .   S
    Zr580  O3134     0.96827      .   S
    Zr572  O3134     0.96827      .   S
    Zr449  O3135     0.97347      .   S
    Zr443  O3135     0.97347      .   S
    Zr476  O3136     0.96643      .   S
    Zr468  O3136     0.96643      .   S
    Zr241  O3137     0.96905      .   S
    Zr235  O3137     0.96905      .   S
    Zr554  O3138     0.96988      .   S
    Zr546  O3138     0.96988      .   S
    Zr372  O3139     0.97431      .   S
    Zr364  O3139     0.97431      .   S
    Zr553  O3140     0.97384      .   S
    Zr547  O3140     0.97384      .   S
    Zr242  O3141     0.97363      .   S
    Zr234  O3141     0.97363      .   S
    Zr475  O3142     0.97715      .   S
    Zr469  O3142     0.97715      .   S
    Zr371  O3143     0.96618      .   S
    Zr365  O3143     0.96618      .   S
    Zr338  O3144     0.65701      .   S
    Zr339  O3144     0.65701      .   S
    Zr338  O3145     0.67158      .   S
    Zr342  O3145     0.67158      .   S
    Zr339  O3146     0.67475      .   S
    Zr340  O3146     0.67475      .   S
    Zr442  O3147     0.65662      .   S
    Zr443  O3147     0.65662      .   S
    Zr442  O3148     0.67244      .   S
    Zr446  O3148     0.67244      .   S
    Zr572  O3149     0.65636      .   S
    Zr573  O3149     0.65636      .   S
    Zr572  O3150     0.67045      .   S
    Zr576  O3150     0.67045      .   S
    Zr261  O3151     0.65689      .   S
    Zr260  O3151     0.65689      .   S
    Zr261  O3152     0.67590      .   S
    Zr262  O3152     0.67590      .   S
    Zr443  O3153     0.67318      .   S
    Zr444  O3153     0.67318      .   S
    Zr573  O3154     0.67543      .   S
    Zr574  O3154     0.67543      .   S
    Zr260  O3155     0.67104      .   S
    Zr264  O3155     0.67104      .   S
    Zr468  O3156     0.65571      .   S
    Zr469  O3156     0.65571      .   S
    Zr468  O3157     0.67081      .   S
    Zr472  O3157     0.67081      .   S
    Zr546  O3158     0.65579      .   S
    Zr547  O3158     0.65579      .   S
    Zr546  O3159     0.67135      .   S
    Zr550  O3159     0.67135      .   S
    Zr235  O3160     0.65619      .   S
    Zr234  O3160     0.65619      .   S
    Zr235  O3161     0.67187      .   S
    Zr236  O3161     0.67187      .   S
    Zr469  O3162     0.67476      .   S
    Zr470  O3162     0.67476      .   S
    Zr364  O3163     0.65644      .   S
    Zr365  O3163     0.65644      .   S
    Zr364  O3164     0.67289      .   S
    Zr368  O3164     0.67289      .   S
    Zr547  O3165     0.67381      .   S
    Zr548  O3165     0.67381      .   S
    Zr234  O3166     0.67367      .   S
    Zr238  O3166     0.67367      .   S
    Zr365  O3167     0.67200      .   S
    Zr366  O3167     0.67200      .   S
    Zr342  O3168     0.53983      .   S
    Zr344  O3168     0.53983      .   S
    Zr342  O3169     0.69243      .   S
    Zr341  O3169     0.69243      .   S
    Zr340  O3170     0.54035      .   S
    Zr343  O3170     0.54035      .   S
    Zr340  O3171     0.69548      .   S
    Zr341  O3171     0.69548      .   S
    Zr446  O3172     0.53987      .   S
    Zr448  O3172     0.53987      .   S
    Zr446  O3173     0.69531      .   S
    Zr445  O3173     0.69531      .   S
    Zr576  O3174     0.53962      .   S
    Zr578  O3174     0.53962      .   S
    Zr576  O3175     0.69332      .   S
    Zr575  O3175     0.69332      .   S
    Zr574  O3176     0.54012      .   S
    Zr577  O3176     0.54012      .   S
    Zr574  O3177     0.69773      .   S
    Zr575  O3177     0.69773      .   S
    Zr444  O3178     0.53986      .   S
    Zr447  O3178     0.53986      .   S
    Zr444  O3179     0.69564      .   S
    Zr445  O3179     0.69564      .   S
    Zr262  O3180     0.54028      .   S
    Zr265  O3180     0.54028      .   S
    Zr262  O3181     0.69588      .   S
    Zr263  O3181     0.69588      .   S
    Zr472  O3182     0.53958      .   S
    Zr474  O3182     0.53958      .   S
    Zr472  O3183     0.69321      .   S
    Zr471  O3183     0.69321      .   S
    Zr264  O3184     0.53995      .   S
    Zr266  O3184     0.53995      .   S
    Zr264  O3185     0.69138      .   S
    Zr263  O3185     0.69138      .   S
    Zr368  O3186     0.54047      .   S
    Zr370  O3186     0.54047      .   S
    Zr368  O3187     0.69414      .   S
    Zr367  O3187     0.69414      .   S
    Zr550  O3188     0.53944      .   S
    Zr552  O3188     0.53944      .   S
    Zr550  O3189     0.69425      .   S
    Zr549  O3189     0.69425      .   S
    Zr236  O3190     0.53952      .   S
    Zr239  O3190     0.53952      .   S
    Zr236  O3191     0.69232      .   S
    Zr237  O3191     0.69232      .   S
    Zr470  O3192     0.54013      .   S
    Zr473  O3192     0.54013      .   S
    Zr470  O3193     0.69742      .   S
    Zr471  O3193     0.69742      .   S
    Zr548  O3194     0.53973      .   S
    Zr551  O3194     0.53973      .   S
    Zr548  O3195     0.69605      .   S
    Zr549  O3195     0.69605      .   S
    Zr238  O3196     0.54010      .   S
    Zr240  O3196     0.54010      .   S
    Zr238  O3197     0.69421      .   S
    Zr237  O3197     0.69421      .   S
    Zr366  O3198     0.54067      .   S
    Zr369  O3198     0.54067      .   S
    Zr366  O3199     0.69343      .   S
    Zr367  O3199     0.69343      .   S
    Zr904  O3200     1.32390      .   S
    Zr905  O3200     1.32390      .   S
    Zr906  O3201     1.32190      .   S
    Zr907  O3201     1.32190      .   S
    Zr908  O3202     1.32198      .   S
    Zr909  O3202     1.32198      .   S
    Zr910  O3203     1.32372      .   S
    Zr911  O3203     1.32372      .   S
    Zr984  O3204     1.32261      .   S
    Zr985  O3204     1.32261      .   S
    Zr986  O3205     1.32360      .   S
    Zr987  O3205     1.32360      .   S
    Zr988  O3206     1.32285      .   S
    Zr989  O3206     1.32285      .   S
    Zr990  O3207     1.32373      .   S
    Zr991  O3207     1.32373      .   S
    Zr992  O3208     1.32253      .   S
    Zr993  O3208     1.32253      .   S
    Zr994  O3209     1.32376      .   S
    Zr995  O3209     1.32376      .   S
    Zr996  O3210     1.32287      .   S
    Zr997  O3210     1.32287      .   S
    Zr998  O3211     1.32422      .   S
    Zr999  O3211     1.32422      .   S
    Zr1072 O3212     1.32251      .   S
    Zr1073 O3212     1.32251      .   S
    Zr1074 O3213     1.32438      .   S
    Zr1075 O3213     1.32438      .   S
    Zr1076 O3214     1.32306      .   S
    Zr1077 O3214     1.32306      .   S
    Zr1078 O3215     1.32369      .   S
    Zr1079 O3215     1.32369      .   S
    Zr1152 O3216     1.32345      .   S
    Zr1153 O3216     1.32345      .   S
    Zr1154 O3217     1.32480      .   S
    Zr1155 O3217     1.32480      .   S
    Zr1156 O3218     1.32255      .   S
    Zr1157 O3218     1.32255      .   S
    Zr1158 O3219     1.32347      .   S
    Zr1159 O3219     1.32347      .   S
    Zr1160 O3220     1.32334      .   S
    Zr1161 O3220     1.32334      .   S
    Zr1162 O3221     1.32370      .   S
    Zr1163 O3221     1.32370      .   S
    Zr1164 O3222     1.32350      .   S
    Zr1165 O3222     1.32350      .   S
    Zr1166 O3223     1.32361      .   S
    Zr1167 O3223     1.32361      .   S
    Zr1240 O3224     1.32416      .   S
    Zr1241 O3224     1.32416      .   S
    Zr1242 O3225     1.32323      .   S
    Zr1243 O3225     1.32323      .   S
    Zr1244 O3226     1.32316      .   S
    Zr1245 O3226     1.32316      .   S
    Zr1246 O3227     1.32370      .   S
    Zr1247 O3227     1.32370      .   S
    Zr1320 O3228     1.32465      .   S
    Zr1321 O3228     1.32465      .   S
    Zr1322 O3229     1.32317      .   S
    Zr1323 O3229     1.32317      .   S
    Zr1324 O3230     1.32347      .   S
    Zr1325 O3230     1.32347      .   S
    Zr1326 O3231     1.32459      .   S
    Zr1327 O3231     1.32459      .   S
    Zr1328 O3232     1.32420      .   S
    Zr1329 O3232     1.32420      .   S
    Zr1330 O3233     1.32368      .   S
    Zr1331 O3233     1.32368      .   S
    Zr1332 O3234     1.32405      .   S
    Zr1333 O3234     1.32405      .   S
    Zr1334 O3235     1.32560      .   S
    Zr1335 O3235     1.32560      .   S
    Zr1408 O3236     1.32304      .   S
    Zr1409 O3236     1.32304      .   S
    Zr1410 O3237     1.32417      .   S
    Zr1411 O3237     1.32417      .   S
    Zr1412 O3238     1.32421      .   S
    Zr1413 O3238     1.32421      .   S
    Zr1414 O3239     1.32331      .   S
    Zr1415 O3239     1.32331      .   S
    Zr1488 O3240     1.32250      .   S
    Zr1489 O3240     1.32250      .   S
    Zr1490 O3241     1.32341      .   S
    Zr1491 O3241     1.32341      .   S
    Zr1492 O3242     1.32272      .   S
    Zr1493 O3242     1.32272      .   S
    Zr1494 O3243     1.32461      .   S
    Zr1495 O3243     1.32461      .   S
    Zr1496 O3244     1.32429  1_554   S
    Zr1497 O3244     1.32429      .   S
    Zr1498 O3245     1.32488      .   S
    Zr1499 O3245     1.32488  1_556   S
    Zr1500 O3246     1.32296      .   S
    Zr1501 O3246     1.32296      .   S
    Zr1502 O3247     1.32435      .   S
    Zr1503 O3247     1.32435      .   S
    N3248  O3249     1.07514      .   S
    Zr897  O3249     1.81507      .   S
    N3248  O3250     1.07681      .   S
    Zr846  O3250     1.81774      .   S
    N3248  O3251    10.35836      .   S
    Zr351  O3251     3.48642      .   S
    N3252  O3253     1.07678      .   S
    Zr903  O3253     1.81822      .   S
    N3252  O3254     1.07795      .   S
    Zr840  O3254     1.82013      .   S
    N3252  O3255    10.36564      .   S
    Zr280  O3255     3.48336      .   S
    N3256  O3257     1.07801      .   S
    Zr861  O3257     1.82024      .   S
    N3256  O3258     1.07667      .   S
    Zr882  O3258     1.81801      .   S
    N3256  O3259    10.35782      .   S
    Zr566  O3259     3.48417      .   S
    N3260  O3261     1.07677      .   S
    Zr864  O3261     1.81822      .   S
    N3260  O3262     1.07694      .   S
    Zr879  O3262     1.81837      .   S
    N3260  O3263    10.37608      .   S
    Zr481  O3263     3.48579      .   S
    N3264  O3265     1.07544      .   S
    Zr1424 O3265     1.81537      .   S
    N3264  O3266     1.07501      .   S
    Zr1487 O3266     1.81452      .   S
    N3264  O3267    10.33324      .   S
    Zr592  O3267     3.47462      .   S
    N3268  O3269     1.07555      .   S
    Zr1445 O3269     1.81591      .   S
    N3268  O3270     1.07521      .   S
    Zr1466 O3270     1.81536      .   S
    N3268  O3271    10.36835      .   S
    Zr254  O3271     3.48473      .   S
    N3272  O3273     1.07572      .   S
    Zr900  O3273     1.81606      .   S
    N3272  O3274     1.07619      .   S
    Zr843  O3274     1.81672      .   S
    N3272  O3275    10.35903      .   S
    Zr384  O3275     3.48113      .   S
    N3276  O3277     1.07532      .   S
    Zr1478 O3277     1.81546      .   S
    N3276  O3278     1.07520      .   S
    Zr1433 O3278     1.81490      .   S
    N3276  O3279    10.34503      .   S
    Zr455  O3279     3.42696      .   S
    N3280  O3281     1.07592      .   S
    Zr1442 O3281     1.81621      .   S
    N3280  O3282     1.07676      .   S
    Zr1469 O3282     1.81740      .   S
    N3280  O3283    10.33269      .   S
    Zr358  O3283     3.47748      .   S
    N3284  O3285     1.07544      .   S
    Zr1430 O3285     1.81552      .   S
    N3284  O3286     1.07693      .   S
    Zr1481 O3286     1.81840      .   S
    N3284  O3287    10.36345      .   S
    Zr559  O3287     3.48649      .   S
    N3288  O3289     1.07396      .   S
    Zr1451 O3289     1.81260      .   S
    N3288  O3290     1.07504      .   S
    Zr1460 O3290     1.81501      .   S
    N3288  O3291    10.35065      .   S
    Zr377  O3291     3.47201      .   S
    N3292  O3293     1.07779      .   S
    Zr1448 O3293     1.81990      .   S
    N3292  O3294     1.07721      .   S
    Zr1463 O3294     1.81928      .   S
    N3292  O3295    10.38940      .   S
    Zr273  O3295     3.49347      .   S
    N3296  O3297     1.07716      .   S
    Zr894  O3297     1.81873      .   S
    N3296  O3298     1.07541      .   S
    Zr849  O3298     1.81529      .   S
    N3296  O3299    10.35815      .   S
    Zr247  O3299     3.48147      .   S
    N3300  O3301     1.07641      .   S
    Zr1418 O3301     1.81721      .   S
    N3300  O3302     1.07511      .   S
    Zr1472 O3302     1.81492      .   S
    N3300  O3303    10.33325      .   S
    Zr731  O3303     3.42575      .   S
    N3304  O3305     1.07691      .   S
    Zr870  O3305     1.81840      .   S
    N3304  O3306     1.07770      .   S
    Zr852  O3306     1.82013      .   S
    N3304  O3307    10.37466      .   S
    Zr705  O3307     3.48132      .   S
    N3308  O3309     1.07796      .   S
    Zr1457 O3309     1.81979      .   S
    N3308  O3310     1.07518      .   S
    Zr1436 O3310     1.81485      .   S
    N3308  O3311    10.32204      .   S
    Zr3    O3311     3.43043      .   S
    N3312  O3313     1.07577      .   S
    Zr1421 O3313     1.81651      .   S
    N3312  O3314     1.07722      .   S
    Zr1475 O3314     1.81896      .   S
    N3312  O3315    10.36552      .   S
    Zr627  O3315     3.48813      .   S
    N3316  O3317     1.07540      .   S
    Zr888  O3317     1.81572      .   S
    N3316  O3318     1.07820      .   S
    Zr837  O3318     1.82077      .   S
    N3316  O3319    10.34619      .   S
    Zr81   O3319     3.43094      .   S
    N3320  O3321     1.07543      .   S
    Zr873  O3321     1.81545      .   S
    N3320  O3322     1.07578      .   S
    Zr855  O3322     1.81635      .   S
    N3320  O3323    10.35582      .   S
    Zr809  O3323     3.47574      .   S
    N3324  O3325     1.07667      .   S
    Zr891  O3325     1.81753      .   S
    N3324  O3326     1.07584      .   S
    Zr834  O3326     1.81649      .   S
    N3324  O3327    10.35193      .   S
    Zr185  O3327     3.47410      .   S
    N3328  O3329     1.07593      .   S
    Zr1454 O3329     1.81634      .   S
    N3328  O3330     1.07496      .   S
    Zr1439 O3330     1.81443      .   S
    N3328  O3331    10.31760      .   S
    Zr107  O3331     3.46754      .   S
    N3332  O3333     1.07541      .   S
    Zr858  O3333     1.81530      .   S
    N3332  O3334     1.07576      .   S
    Zr885  O3334     1.81621      .   S
    N3332  O3335    10.34820      .   S
    Zr462  O3335     3.48014      .   S
    N3336  O3337     1.07521      .   S
    Zr876  O3337     1.81503      .   S
    N3336  O3338     1.07633      .   S
    Zr867  O3338     1.81741      .   S
    N3336  O3339    10.34402      .   S
    Zr585  O3339     3.43353      .   S
    N3340  O3341     1.07489      .   S
    Zr1427 O3341     1.81438      .   S
    N3340  O3342     1.07343      .   S
    Zr1484 O3342     1.81154      .   S
    N3340  O3343    10.34514      .   S
    Zr488  O3343     3.47759      .   S
    N3344  O3345     1.07817      .   S
    Zr1377 O3345     1.82087      .   S
    N3344  O3346     1.07607      .   S
    Zr1359 O3346     1.81671      .   S
    N3344  O3347    10.38449      .   S
    Zr211  O3347     3.48756      .   S
    N3348  O3349     1.07535      .   S
    Zr917  O3349     1.81534      .   S
    N3348  O3350     1.07676      .   S
    Zr971  O3350     1.81813      .   S
    N3348  O3351    10.35760      .   S
    Zr393  O3351     3.47894      .   S
    N3352  O3353     1.07564      .   S
    Zr932  O3353     1.81592      .   S
    N3352  O3354     1.07654      .   S
    Zr953  O3354     1.81754      .   S
    N3352  O3355    10.32658      .   S
    Zr601  O3355     3.42382      .   S
    N3356  O3357     1.07652      .   S
    Zr914  O3357     1.81750      .   S
    N3356  O3358     1.07590      .   S
    Zr968  O3358     1.81665      .   S
    N3356  O3359    10.35880      .   S
    Zr289  O3359     3.48367      .   S
    N3360  O3361     1.07556      .   S
    Zr1356 O3361     1.81562      .   S
    N3360  O3362     1.07515      .   S
    Zr1374 O3362     1.81455      .   S
    N3360  O3363    10.33402      .   S
    Zr315  O3363     3.47281      .   S
    N3364  O3365     1.07500      .   S
    Zr1338 O3365     1.81459      .   S
    N3364  O3366     1.07448      .   S
    Zr1395 O3366     1.81346      .   S
    N3364  O3367    10.32309      .   S
    Zr419  O3367     3.47465      .   S
    N3368  O3369     1.07468      .   S
    Zr935  O3369     1.81414      .   S
    N3368  O3370     1.07610      .   S
    Zr950  O3370     1.81681      .   S
    N3368  O3371    10.35682      .   S
    Zr497  O3371     3.48013      .   S
    N3372  O3373     1.07547      .   S
    Zr1341 O3373     1.81564      .   S
    N3372  O3374     1.07504      .   S
    Zr1392 O3374     1.81508      .   S
    N3372  O3375    10.36428      .   S
    Zr523  O3375     3.48089      .   S
    N3376  O3377     1.07591      .   S
    Zr956  O3377     1.81631      .   S
    N3376  O3378     1.07535      .   S
    Zr947  O3378     1.81521      .   S
    N3376  O3379    10.36314      .   S
    Zr689  O3379     3.48663      .   S
    N3380  O3381     1.07760      .   S
    Zr1350 O3381     1.81958      .   S
    N3380  O3382     1.07828      .   S
    Zr1401 O3382     1.82063      .   S
    N3380  O3383    10.35188      .   S
    Zr663  O3383     3.48248      .   S
    N3384  O3385     1.07620      .   S
    Zr944  O3385     1.81694      .   S
    N3384  O3386     1.07650      .   S
    Zr959  O3386     1.81745      .   S
    N3384  O3387    10.34656      .   S
    Zr793  O3387     3.42671      .   S
    N3388  O3389     1.07470      .   S
    Zr1383 O3389     1.81439      .   S
    N3388  O3390     1.07488      .   S
    Zr1368 O3390     1.81420      .   S
    N3388  O3391    10.31718      .   S
    Zr169  O3391     3.47240      .   S
    N3392  O3393     1.07552      .   S
    Zr1380 O3393     1.81566      .   S
    N3392  O3394     1.07502      .   S
    Zr1371 O3394     1.81508      .   S
    N3392  O3395    10.33657      .   S
    Zr65   O3395     3.47406      .   S
    N3396  O3397     1.07395      .   S
    Zr1353 O3397     1.81256      .   S
    N3396  O3398     1.07450      .   S
    Zr1398 O3398     1.81365      .   S
    N3396  O3399    10.32518      .   S
    Zr767  O3399     3.46321      .   S
    N3400  O3401     1.07588      .   S
    Zr926  O3401     1.81637      .   S
    N3400  O3402     1.07628      .   S
    Zr977  O3402     1.81714      .   S
    N3400  O3403    10.31140      .   S
    Zr39   O3403     3.47176      .   S
    N3404  O3405     1.07616      .   S
    Zr974  O3405     1.81709      .   S
    N3404  O3406     1.07759      .   S
    Zr929  O3406     1.81943      .   S
    N3404  O3407    10.36031      .   S
    Zr143  O3407     3.48772      .   S
    N3408  O3409     1.07673      .   S
    Zr983  O3409     1.81780      .   S
    N3408  O3410     1.07542      .   S
    Zr920  O3410     1.81537      .   S
    N3408  O3411    10.35780      .   S
    Zr72   O3411     3.48490      .   S
    N3412  O3413     1.07613      .   S
    Zr962  O3413     1.81667      .   S
    N3412  O3414     1.07494      .   S
    Zr941  O3414     1.81468      .   S
    N3412  O3415    10.34791      .   S
    Zr774  O3415     3.47820      .   S
    N3416  O3417     1.07503      .   S
    Zr1365 O3417     1.81519      .   S
    N3416  O3418     1.07577      .   S
    Zr1386 O3418     1.81598      .   S
    N3416  O3419    10.34122      .   S
    Zr46   O3419     3.48045      .   S
    N3420  O3421     1.07470      .   S
    Zr923  O3421     1.81410      .   S
    N3420  O3422     1.07619      .   S
    Zr980  O3422     1.81681      .   S
    N3420  O3423    10.34705      .   S
    Zr176  O3423     3.48199      .   S
    N3424  O3425     1.07614      .   S
    Zr1344 O3425     1.81697      .   S
    N3424  O3426     1.07619      .   S
    Zr1407 O3426     1.81711      .   S
    N3424  O3427    10.35896      .   S
    Zr800  O3427     3.48240      .   S
    N3428  O3429     1.07701      .   S
    Zr965  O3429     1.81843      .   S
    N3428  O3430     1.07643      .   S
    Zr938  O3430     1.81763      .   S
    N3428  O3431    10.37338      .   S
    Zr670  O3431     3.49011      .   S
    N3432  O3433     1.07337      .   S
    Zr1389 O3433     1.81171      .   S
    N3432  O3434     1.07456      .   S
    Zr1362 O3434     1.81374      .   S
    N3432  O3435    10.34458      .   S
    Zr150  O3435     3.47059      .   S
    N3436  O3437     1.07634      .   S
    Zr1347 O3437     1.81705      .   S
    N3436  O3438     1.07451      .   S
    Zr1404 O3438     1.81399      .   S
    N3436  O3439    10.35121      .   S
    Zr696  O3439     3.46536      .   S
    N3440  O3441     1.07640      .   S
    Zr1133 O3441     1.81694      .   S
    N3440  O3442     1.07602      .   S
    Zr1106 O3442     1.81634      .   S
    N3440  O3443    10.34092      .   S
    Zr410  O3443     3.47860      .   S
    N3444  O3445     1.07628      .   S
    Zr1091 O3445     1.81695      .   S
    N3444  O3446     1.07486      .   S
    Zr1148 O3446     1.81423      .   S
    N3444  O3447    10.34530      .   S
    Zr436  O3447     3.48103      .   S
    N3448  O3449     1.07411      .   S
    Zr1319 O3449     1.81267      .   S
    N3448  O3450     1.07484      .   S
    Zr1256 O3450     1.81416      .   S
    N3448  O3451    10.34178      .   S
    Zr618  O3451     3.47303      .   S
    N3452  O3453     1.07511      .   S
    Zr1127 O3453     1.81492      .   S
    N3452  O3454     1.07801      .   S
    Zr1112 O3454     1.81989      .   S
    N3452  O3455    10.36773      .   S
    Zr221  O3455     3.48355      .   S
    N3456  O3457     1.07576      .   S
    Zr1115 O3457     1.81624      .   S
    N3456  O3458     1.07569      .   S
    Zr1124 O3458     1.81601      .   S
    N3456  O3459    10.33925      .   S
    Zr325  O3459     3.47721      .   S
    N3460  O3461     1.07568      .   S
    Zr1277 O3461     1.81599      .   S
    N3460  O3462     1.07723      .   S
    Zr1298 O3462     1.81853      .   S
    N3460  O3463    10.33061      .   S
    Zr228  O3463     3.47773      .   S
    N3464  O3465     1.07387      .   S
    Zr1142 O3465     1.81275      .   S
    N3464  O3466     1.07585      .   S
    Zr1097 O3466     1.81606      .   S
    N3464  O3467    10.33150      .   S
    Zr507  O3467     3.47742      .   S
    N3468  O3469     1.07285      .   S
    Zr1259 O3469     1.81063      .   S
    N3468  O3470     1.07351      .   S
    Zr1316 O3470     1.81187      .   S
    N3468  O3471    10.31873      .   S
    Zr514  O3471     3.46802      .   S
    N3472  O3473     1.07528      .   S
    Zr1265 O3473     1.81514      .   S
    N3472  O3474     1.07628      .   S
    Zr1310 O3474     1.81700      .   S
    N3472  O3475    10.32710      .   S
    Zr429  O3475     3.42727      .   S
    N3476  O3477     1.07735      .   S
    Zr1151 O3477     1.81852      .   S
    N3476  O3478     1.07607      .   S
    Zr1088 O3478     1.81645      .   S
    N3476  O3479    10.26627      .   S
    Zr540  O3479     3.45110      .   S
    N3480  O3481     1.07594      .   S
    Zr1274 O3481     1.81666      .   S
    N3480  O3482     1.07532      .   S
    Zr1301 O3482     1.81540      .   S
    N3480  O3483    10.34677      .   S
    Zr332  O3483     3.47316      .   S
    N3484  O3485     1.07508      .   S
    Zr1295 O3485     1.81472      .   S
    N3484  O3486     1.07675      .   S
    Zr1280 O3486     1.81770      .   S
    N3484  O3487    10.32331      .   S
    Zr299  O3487     3.47512      .   S
    N3488  O3489     1.07413      .   S
    Zr1292 O3489     1.81319      .   S
    N3488  O3490     1.07546      .   S
    Zr1283 O3490     1.81572      .   S
    N3488  O3491    10.35449      .   S
    Zr403  O3491     3.48442      .   S
    N3492  O3493     1.07507      .   S
    Zr1262 O3493     1.81464      .   S
    N3492  O3494     1.07387      .   S
    Zr1313 O3494     1.81254      .   S
    N3492  O3495    10.34906      .   S
    Zr533  O3495     3.47482      .   S
    N3496  O3497     1.07606      .   S
    Zr1130 O3497     1.81621      .   S
    N3496  O3498     1.07413      .   S
    Zr1109 O3498     1.81298      .   S
    N3496  O3499    10.33650      .   S
    Zr306  O3499     3.47982      .   S
    N3500  O3501     1.07679      .   S
    Zr1094 O3501     1.81793      .   S
    N3500  O3502     1.07545      .   S
    Zr1145 O3502     1.81549      .   S
    N3500  O3503    10.34129      .   S
    Zr611  O3503     3.42617      .   S
    N3504  O3505     1.07518      .   S
    Zr1268 O3505     1.81480      .   S
    N3504  O3506     1.07376      .   S
    Zr1289 O3506     1.81216      .   S
    N3504  O3507    10.33952      .   S
    Zr29   O3507     3.47365      .   S
    N3508  O3509     1.07594      .   S
    Zr1170 O3509     1.81625      .   S
    N3508  O3510     1.07624      .   S
    Zr1227 O3510     1.81693      .   S
    N3508  O3511    10.33866      .   S
    Zr445  O3511     3.42548      .   S
    N3512  O3513     1.07609      .   S
    Zr1215 O3513     1.81689      .   S
    N3512  O3514     1.07527      .   S
    Zr1200 O3514     1.81546      .   S
    N3512  O3515    10.37059      .   S
    Zr195  O3515     3.48294      .   S
    N3516  O3517     1.07612      .   S
    Zr1100 O3517     1.81677      .   S
    N3516  O3518     1.07515      .   S
    Zr1121 O3518     1.81511      .   S
    N3516  O3519    10.34055      .   S
    Zr55   O3519     3.42945      .   S
    N3520  O3521     1.07420      .   S
    Zr1085 O3521     1.81314      .   S
    N3520  O3522     1.07578      .   S
    Zr1139 O3522     1.81597      .   S
    N3520  O3523    10.33785      .   S
    Zr679  O3523     3.47756      .   S
    N3524  O3525     1.07597      .   S
    Zr1250 O3525     1.81664      .   S
    N3524  O3526     1.07436      .   S
    Zr1304 O3526     1.81318      .   S
    N3524  O3527    10.34174      .   S
    Zr757  O3527     3.46870      .   S
    N3528  O3529     1.07616      .   S
    Zr1253 O3529     1.81687      .   S
    N3528  O3530     1.07503      .   S
    Zr1307 O3530     1.81484      .   S
    N3528  O3531    10.35675      .   S
    Zr653  O3531     3.48672      .   S
    N3532  O3533     1.07361      .   S
    Zr1271 O3533     1.81171      .   S
    N3532  O3534     1.07633      .   S
    Zr1286 O3534     1.81680      .   S
    N3532  O3535    10.33402      .   S
    Zr133  O3535     3.42973      .   S
    N3536  O3537     1.07642      .   S
    Zr1103 O3537     1.81712      .   S
    N3536  O3538     1.07431      .   S
    Zr1118 O3538     1.81357      .   S
    N3536  O3539    10.33814      .   S
    Zr159  O3539     3.48122      .   S
    N3540  O3541     1.07589      .   S
    Zr1136 O3541     1.81621      .   S
    N3540  O3542     1.07579      .   S
    Zr1082 O3542     1.81617      .   S
    N3540  O3543    10.35081      .   S
    Zr783  O3543     3.48213      .   S
    N3544  O3545     1.07460      .   S
    Zr1029 O3545     1.81410      .   S
    N3544  O3546     1.07623      .   S
    Zr1050 O3546     1.81683      .   S
    N3544  O3547    10.36645      .   S
    Zr98   O3547     3.48786      .   S
    N3548  O3549     1.07410      .   S
    Zr1005 O3549     1.81292      .   S
    N3548  O3550     1.07606      .   S
    Zr1056 O3550     1.81703      .   S
    N3548  O3551    10.33583      .   S
    Zr575  O3551     3.42941      .   S
    N3552  O3553     1.07568      .   S
    Zr1002 O3553     1.81592      .   S
    N3552  O3554     1.07784      .   S
    Zr1059 O3554     1.81954      .   S
    N3552  O3555    10.32970      .   S
    Zr471  O3555     3.42531      .   S
    N3556  O3557     1.07627      .   S
    Zr1194 O3557     1.81679      .   S
    N3556  O3558     1.07383      .   S
    Zr1221 O3558     1.81247      .   S
    N3556  O3559    10.33999      .   S
    Zr124  O3559     3.47492      .   S
    N3560  O3561     1.07731      .   S
    Zr1230 O3561     1.81910      .   S
    N3560  O3562     1.07549      .   S
    Zr1185 O3562     1.81553      .   S
    N3560  O3563    10.33071      .   S
    Zr741  O3563     3.42350      .   S
    N3564  O3565     1.07608      .   S
    Zr1017 O3565     1.81661      .   S
    N3564  O3566     1.07532      .   S
    Zr1062 O3566     1.81513      .   S
    N3564  O3567    10.32734      .   S
    Zr819  O3567     3.42465      .   S
    N3568  O3569     1.07478      .   S
    Zr1197 O3569     1.81415      .   S
    N3568  O3570     1.07426      .   S
    Zr1218 O3570     1.81332      .   S
    N3568  O3571    10.32507      .   S
    Zr20   O3571     3.46991      .   S
    N3572  O3573     1.07616      .   S
    Zr1026 O3573     1.81699      .   S
    N3572  O3574     1.07467      .   S
    Zr1053 O3574     1.81419      .   S
    N3572  O3575    10.37661      .   S
    Zr202  O3575     3.48884      .   S
    N3576  O3577     1.07604      .   S
    Zr1224 O3577     1.81653      .   S
    N3576  O3578     1.07463      .   S
    Zr1173 O3578     1.81406      .   S
    N3576  O3579    10.31586      .   S
    Zr549  O3579     3.42499      .   S
    N3580  O3581     1.07419      .   S
    Zr1233 O3581     1.81349      .   S
    N3580  O3582     1.07664      .   S
    Zr1182 O3582     1.81780      .   S
    N3580  O3583    10.33804      .   S
    Zr637  O3583     3.43005      .   S
    N3584  O3585     1.07724      .   S
    Zr1065 O3585     1.81862      .   S
    N3584  O3586     1.07798      .   S
    Zr1014 O3586     1.82040      .   S
    N3584  O3587    10.36996      .   S
    Zr715  O3587     3.48407      .   S
    N3588  O3589     1.07581      .   S
    Zr1020 O3589     1.81615      .   S
    N3588  O3590     1.07550      .   S
    Zr1038 O3590     1.81566      .   S
    N3588  O3591    10.32325      .   S
    Zr367  O3591     3.47552      .   S
    N3592  O3593     1.07472      .   S
    Zr1023 O3593     1.81412      .   S
    N3592  O3594     1.07763      .   S
    Zr1041 O3594     1.81938      .   S
    N3592  O3595    10.36561      .   S
    Zr263  O3595     3.48754      .   S
    N3596  O3597     1.07613      .   S
    Zr1068 O3597     1.81641      .   S
    N3596  O3598     1.07485      .   S
    Zr1011 O3598     1.81426      .   S
    N3596  O3599    10.32985      .   S
    Zr644  O3599     3.47334      .   S
    N3600  O3601     1.07437      .   S
    Zr1209 O3601     1.81360      .   S
    N3600  O3602     1.07586      .   S
    Zr1191 O3602     1.81624      .   S
    N3600  O3603    10.33178      .   S
    Zr237  O3603     3.47718      .   S
    N3604  O3605     1.07519      .   S
    Zr1239 O3605     1.81521      .   S
    N3604  O3606     1.07516      .   S
    Zr1176 O3606     1.81525      .   S
    N3604  O3607    10.35290      .   S
    Zr826  O3607     3.47665      .   S
    N3608  O3609     1.07656      .   S
    Zr1236 O3609     1.81749      .   S
    N3608  O3610     1.07579      .   S
    Zr1179 O3610     1.81635      .   S
    N3608  O3611    10.37113      .   S
    Zr722  O3611     3.48365      .   S
    N3612  O3613     1.07544      .   S
    Zr1008 O3613     1.81590      .   S
    N3612  O3614     1.07651      .   S
    Zr1071 O3614     1.81742      .   S
    N3612  O3615    10.36263      .   S
    Zr748  O3615     3.48585      .   S
    N3616  O3617     1.07734      .   S
    Zr1206 O3617     1.81884      .   S
    N3616  O3618     1.07558      .   S
    Zr1188 O3618     1.81580      .   S
    N3616  O3619    10.37044      .   S
    Zr341  O3619     3.48419      .   S
    N3620  O3621     1.07553      .   S
    Zr1044 O3621     1.81599      .   S
    N3620  O3622     1.07676      .   S
    Zr1035 O3622     1.81827      .   S
    N3620  O3623    10.34931      .   S
    Zr13   O3623     3.43159      .   S
    N3624  O3625     1.07751      .   S
    Zr1047 O3625     1.81951      .   S
    N3624  O3626     1.07600      .   S
    Zr1032 O3626     1.81649      .   S
    N3624  O3627    10.36050      .   S
    Zr117  O3627     3.48083      .   S
    N3628  O3629     1.07507      .   S
    Zr1203 O3629     1.81494      .   S
    N3628  O3630     1.07591      .   S
    Zr1212 O3630     1.81622      .   S
    N3628  O3631    10.32823      .   S
    Zr91   O3631     3.47524      .   S
