# CIF file generated by openbabel 2.4.90, see http://openbabel.sf.net
data_I
_chemical_name_common ''
_cell_length_a 18.5949
_cell_length_b 18.5949
_cell_length_c 18.595
_cell_angle_alpha 89.9998
_cell_angle_beta 120
_cell_angle_gamma 120
_space_group_name_H-M_alt 'P 1'
_space_group_name_Hall 'P 1'
loop_
    _symmetry_equiv_pos_as_xyz
    x,y,z
loop_
    _atom_site_label
    _atom_site_type_symbol
    _atom_site_fract_x
    _atom_site_fract_y
    _atom_site_fract_z
    _atom_site_occupancy
    Zr0     Zr   0.00000   0.00000   0.43480   1.000
    Zr1     Zr   0.99999   0.56519   0.00000   1.000
    Zr2     Zr   0.56520   0.56520   0.00000   1.000
    Zr3     Zr   0.56519   0.99999   0.56520   1.000
    Zr4     Zr   0.56520   0.00000   0.00000   1.000
    Zr5     Zr   0.56520   0.56520   0.56520   1.000
    Zr6     Zr   0.00000   0.00000   0.56520   1.000
    Zr7     Zr   0.00001   0.43481   0.00000   1.000
    Zr8     Zr   0.43480   0.43480   0.00000   1.000
    Zr9     Zr   0.43481   0.00001   0.43480   1.000
    Zr10    Zr   0.43480   0.00000   0.00000   1.000
    Zr11    Zr   0.43480   0.43480   0.43480   1.000
    Zr12    Zr   0.86158   0.83775   0.43079   1.000
    Zr13    Zr   0.86158   0.02383   0.43079   1.000
    Zr14    Zr   0.13842   0.56921   0.16225   1.000
    Zr15    Zr   0.13842   0.56921   0.97617   1.000
    Zr16    Zr   0.40696   0.56921   0.97617   1.000
    Zr17    Zr   0.59304   0.56921   0.16225   1.000
    Zr18    Zr   0.40696   0.83775   0.43079   1.000
    Zr19    Zr   0.59304   0.02383   0.43079   1.000
    Zr20    Zr   0.59304   0.02383   0.16225   1.000
    Zr21    Zr   0.40696   0.83775   0.97617   1.000
    Zr22    Zr   0.40696   0.56921   0.43079   1.000
    Zr23    Zr   0.59304   0.56921   0.43079   1.000
    Zr24    Zr   0.13842   0.16225   0.56921   1.000
    Zr25    Zr   0.13842   0.97617   0.56921   1.000
    Zr26    Zr   0.86158   0.43079   0.02383   1.000
    Zr27    Zr   0.86158   0.43079   0.83775   1.000
    Zr28    Zr   0.59304   0.43079   0.56921   1.000
    Zr29    Zr   0.40696   0.43079   0.56921   1.000
    Zr30    Zr   0.59304   0.16225   0.02383   1.000
    Zr31    Zr   0.40696   0.97617   0.83775   1.000
    Zr32    Zr   0.40696   0.97617   0.56921   1.000
    Zr33    Zr   0.59304   0.16225   0.56921   1.000
    Zr34    Zr   0.59304   0.43079   0.02383   1.000
    Zr35    Zr   0.40696   0.43079   0.83775   1.000
    Zr36    Zr   0.89491   0.87441   0.38627   1.000
    Zr37    Zr   0.89492   0.02051   0.50865   1.000
    Zr38    Zr   0.10507   0.61372   0.12559   1.000
    Zr39    Zr   0.10509   0.49136   0.97950   1.000
    Zr40    Zr   0.48814   0.61373   0.97950   1.000
    Zr41    Zr   0.51185   0.49135   0.12559   1.000
    Zr42    Zr   0.48813   0.87441   0.50864   1.000
    Zr43    Zr   0.51187   0.02051   0.38628   1.000
    Zr44    Zr   0.63423   0.02050   0.12558   1.000
    Zr45    Zr   0.36576   0.87441   0.97950   1.000
    Zr46    Zr   0.36578   0.49136   0.38627   1.000
    Zr47    Zr   0.63423   0.61373   0.50865   1.000
    Zr48    Zr   0.10507   0.12558   0.49135   1.000
    Zr49    Zr   0.10509   0.97950   0.61373   1.000
    Zr50    Zr   0.89493   0.38628   0.02051   1.000
    Zr51    Zr   0.89491   0.50864   0.87441   1.000
    Zr52    Zr   0.51186   0.38627   0.49135   1.000
    Zr53    Zr   0.48814   0.50864   0.61373   1.000
    Zr54    Zr   0.51186   0.12559   0.02050   1.000
    Zr55    Zr   0.48814   0.97949   0.87441   1.000
    Zr56    Zr   0.36577   0.97950   0.49135   1.000
    Zr57    Zr   0.63423   0.12558   0.61373   1.000
    Zr58    Zr   0.63424   0.50865   0.02050   1.000
    Zr59    Zr   0.36577   0.38627   0.87441   1.000
    Zr60    Zr   0.10509   0.12559   0.61373   1.000
    Zr61    Zr   0.10508   0.97949   0.49135   1.000
    Zr62    Zr   0.89493   0.38628   0.87441   1.000
    Zr63    Zr   0.89491   0.50864   0.02050   1.000
    Zr64    Zr   0.51186   0.38627   0.02050   1.000
    Zr65    Zr   0.48815   0.50865   0.87441   1.000
    Zr66    Zr   0.51187   0.12559   0.49136   1.000
    Zr67    Zr   0.48813   0.97949   0.61373   1.000
    Zr68    Zr   0.36577   0.97950   0.87442   1.000
    Zr69    Zr   0.63424   0.12559   0.02050   1.000
    Zr70    Zr   0.63422   0.50864   0.61373   1.000
    Zr71    Zr   0.36577   0.38627   0.49136   1.000
    Zr72    Zr   0.89492   0.87441   0.50865   1.000
    Zr73    Zr   0.89491   0.02050   0.38627   1.000
    Zr74    Zr   0.10507   0.61372   0.97949   1.000
    Zr75    Zr   0.10509   0.49136   0.12559   1.000
    Zr76    Zr   0.48813   0.61372   0.50865   1.000
    Zr77    Zr   0.51186   0.49136   0.38627   1.000
    Zr78    Zr   0.48814   0.87441   0.97950   1.000
    Zr79    Zr   0.51186   0.02051   0.12559   1.000
    Zr80    Zr   0.63423   0.02050   0.50865   1.000
    Zr81    Zr   0.36577   0.87442   0.38627   1.000
    Zr82    Zr   0.36577   0.49136   0.97950   1.000
    Zr83    Zr   0.63423   0.61373   0.12559   1.000
    O84     O    0.47333   0.41053   0.01025   1.000
    O85     O    0.47332   0.46307   0.06279   1.000
    O86     O    0.40029   0.41053   0.93720   1.000
    O87     O    0.40028   0.46308   0.98975   1.000
    O88     O    0.94745   0.53691   0.01025   1.000
    O89     O    0.05253   0.58945   0.06279   1.000
    O90     O    0.94745   0.53691   0.93720   1.000
    O91     O    0.05253   0.58945   0.98974   1.000
    O92     O    0.59972   0.53692   0.01025   1.000
    O93     O    0.59971   0.58946   0.06279   1.000
    O94     O    0.52668   0.53692   0.93720   1.000
    O95     O    0.52667   0.58946   0.98975   1.000
    O96     O    0.94747   0.41054   0.01025   1.000
    O97     O    0.05255   0.46308   0.06279   1.000
    O98     O    0.94747   0.41054   0.93720   1.000
    O99     O    0.05255   0.46308   0.98975   1.000
    O100    O    0.55245   0.40853   0.02216   1.000
    O101    O    0.87824   0.46971   0.02216   1.000
    O102    O    0.61364   0.14392   0.02216   1.000
    O103    O    0.59972   0.06280   0.01025   1.000
    O104    O    0.61364   0.46972   0.02216   1.000
    O105    O    0.55245   0.14392   0.02216   1.000
    O106    O    0.47333   0.06280   0.01025   1.000
    O107    O    0.87825   0.40853   0.02217   1.000
    O108    O    0.61363   0.02217   0.14391   1.000
    O109    O    0.59971   0.01025   0.06279   1.000
    O110    O    0.61363   0.59147   0.14392   1.000
    O111    O    0.12176   0.53028   0.14392   1.000
    O112    O    0.12175   0.59146   0.14392   1.000
    O113    O    0.55244   0.53028   0.14392   1.000
    O114    O    0.55245   0.02217   0.14392   1.000
    O115    O    0.47333   0.01026   0.06279   1.000
    O116    O    0.55245   0.53028   0.40853   1.000
    O117    O    0.47333   0.46308   0.41053   1.000
    O118    O    0.38637   0.53028   0.40853   1.000
    O119    O    0.40029   0.46308   0.41053   1.000
    O120    O    0.87824   0.85608   0.40853   1.000
    O121    O    0.94745   0.93720   0.41053   1.000
    O122    O    0.38636   0.85608   0.40853   1.000
    O123    O    0.40029   0.93721   0.41053   1.000
    O124    O    0.87824   0.02217   0.40853   1.000
    O125    O    0.94745   0.01025   0.41053   1.000
    O126    O    0.55245   0.02217   0.40853   1.000
    O127    O    0.47334   0.01026   0.41054   1.000
    O128    O    0.87825   0.02217   0.46972   1.000
    O129    O    0.87825   0.85608   0.46972   1.000
    O130    O    0.44754   0.59146   0.46972   1.000
    O131    O    0.61363   0.02217   0.46972   1.000
    O132    O    0.61363   0.59147   0.46972   1.000
    O133    O    0.44754   0.85608   0.46971   1.000
    O134    O    0.05254   0.06279   0.46307   1.000
    O135    O    0.05254   0.98974   0.46307   1.000
    O136    O    0.47333   0.41053   0.46307   1.000
    O137    O    0.40028   0.41053   0.46308   1.000
    O138    O    0.40029   0.98975   0.46307   1.000
    O139    O    0.47334   0.06280   0.46308   1.000
    O140    O    0.12175   0.14391   0.53028   1.000
    O141    O    0.12175   0.97783   0.53028   1.000
    O142    O    0.55245   0.40853   0.53028   1.000
    O143    O    0.38637   0.97783   0.53028   1.000
    O144    O    0.55245   0.14392   0.53028   1.000
    O145    O    0.38636   0.40853   0.53028   1.000
    O146    O    0.52666   0.93720   0.53692   1.000
    O147    O    0.94746   0.93720   0.53692   1.000
    O148    O    0.59971   0.01024   0.53692   1.000
    O149    O    0.94746   0.01026   0.53692   1.000
    O150    O    0.52666   0.58946   0.53692   1.000
    O151    O    0.59971   0.58946   0.53692   1.000
    O152    O    0.52666   0.98974   0.58946   1.000
    O153    O    0.59971   0.06278   0.58946   1.000
    O154    O    0.05255   0.98975   0.58946   1.000
    O155    O    0.05255   0.06280   0.58946   1.000
    O156    O    0.52667   0.53692   0.58946   1.000
    O157    O    0.59971   0.53692   0.58946   1.000
    O158    O    0.61363   0.46971   0.59147   1.000
    O159    O    0.44755   0.46971   0.59147   1.000
    O160    O    0.44754   0.97783   0.59147   1.000
    O161    O    0.12176   0.97783   0.59147   1.000
    O162    O    0.12176   0.14392   0.59147   1.000
    O163    O    0.61363   0.14391   0.59147   1.000
    O164    O    0.44755   0.97783   0.85608   1.000
    O165    O    0.38637   0.97783   0.85608   1.000
    O166    O    0.38636   0.40853   0.85608   1.000
    O167    O    0.44755   0.46972   0.85608   1.000
    O168    O    0.87824   0.46971   0.85608   1.000
    O169    O    0.87825   0.40853   0.85608   1.000
    O170    O    0.52667   0.98974   0.93720   1.000
    O171    O    0.40028   0.98975   0.93721   1.000
    O172    O    0.12175   0.59146   0.97783   1.000
    O173    O    0.12176   0.53028   0.97783   1.000
    O174    O    0.44755   0.85608   0.97783   1.000
    O175    O    0.38636   0.85608   0.97783   1.000
    O176    O    0.38636   0.53028   0.97783   1.000
    O177    O    0.44755   0.59147   0.97783   1.000
    O178    O    0.52667   0.93720   0.98975   1.000
    O179    O    0.40028   0.93720   0.98975   1.000
    O180    O    0.00000   0.00000   0.50000   1.000
    O181    O    0.00000   0.50000   0.00000   1.000
    O182    O    0.50000   0.50000   0.00000   1.000
    O183    O    0.50000   0.00000   0.50000   1.000
    O184    O    0.50000   0.00000   0.00000   1.000
    O185    O    0.50000   0.50000   0.50000   1.000
    N186    N    0.31391   0.65695   0.34305   1.000
    O187    O    0.24830   0.62415   0.27624   1.000
    O188    O    0.34791   0.72376   0.37585   1.000
    O189    O    0.34791   0.62415   0.37585   1.000
    N190    N    0.68609   0.65695   0.34305   1.000
    O191    O    0.75170   0.72376   0.37585   1.000
    O192    O    0.65208   0.62415   0.27624   1.000
    O193    O    0.65208   0.62415   0.37585   1.000
    N194    N    0.31391   0.97086   0.65695   1.000
    O195    O    0.24830   0.97207   0.62415   1.000
    O196    O    0.34792   0.97207   0.72376   1.000
    O197    O    0.34792   0.97207   0.62415   1.000
    N198    N    0.68610   0.34305   0.02914   1.000
    O199    O    0.65209   0.27624   0.02793   1.000
    O200    O    0.75170   0.37585   0.02793   1.000
    O201    O    0.65209   0.37585   0.02793   1.000
    N202    N    0.31391   0.34305   0.65695   1.000
    O203    O    0.34792   0.37585   0.62415   1.000
    O204    O    0.24830   0.27624   0.62415   1.000
    O205    O    0.34792   0.37585   0.72377   1.000
    N206    N    0.68609   0.34305   0.65695   1.000
    O207    O    0.75170   0.37585   0.72377   1.000
    O208    O    0.65209   0.37585   0.62415   1.000
    O209    O    0.65209   0.27624   0.62415   1.000
    N210    N    0.68609   0.02914   0.34305   1.000
    O211    O    0.75170   0.02793   0.37585   1.000
    O212    O    0.65208   0.02793   0.37585   1.000
    O213    O    0.65208   0.02793   0.27624   1.000
    N214    N    0.31390   0.65695   0.97086   1.000
    O215    O    0.24830   0.62415   0.97207   1.000
    O216    O    0.34791   0.62415   0.97207   1.000
    O217    O    0.34791   0.72376   0.97207   1.000
loop_
    _geom_bond_atom_site_label_1
    _geom_bond_atom_site_label_2
    _geom_bond_distance
    _geom_bond_site_symmetry_2
    _ccdc_geom_bond_type
    Zr8    O84       0.96951      .   S
    Zr64   O84       0.96951      .   S
    Zr8    O85       0.96951      .   S
    Zr41   O85       0.96951      .   S
    Zr8    O86       0.96951  1_554   S
    Zr59   O86       0.96951      .   S
    Zr8    O87       0.96951  1_554   S
    Zr82   O87       0.96951      .   S
    Zr1    O88       0.96942      .   S
    Zr63   O88       0.96942      .   S
    Zr1    O89       0.96949  1_655   S
    Zr38   O89       0.96949      .   S
    Zr1    O90       0.96949  1_554   S
    Zr51   O90       0.96949      .   S
    Zr1    O91       0.96949  1_654   S
    Zr74   O91       0.96949      .   S
    Zr2    O92       0.96951      .   S
    Zr58   O92       0.96951      .   S
    Zr2    O93       0.96951      .   S
    Zr83   O93       0.96951      .   S
    Zr2    O94       0.96951  1_554   S
    Zr65   O94       0.96951      .   S
    Zr2    O95       0.96951  1_554   S
    Zr40   O95       0.96951      .   S
    Zr7    O96       0.96949  1_455   S
    Zr50   O96       0.96949      .   S
    Zr7    O97       0.96949      .   S
    Zr75   O97       0.96949      .   S
    Zr7    O98       0.96949  1_454   S
    Zr62   O98       0.96949      .   S
    Zr7    O99       0.96942  1_554   S
    Zr39   O99       0.96942      .   S
    Zr64   O100      0.63732      .   S
    Zr34   O100      0.63732      .   S
    Zr63   O101      0.63732      .   S
    Zr26   O101      0.63732      .   S
    Zr69   O102      0.63741      .   S
    Zr30   O102      0.63741      .   S
    Zr69   O103      0.96950      .   S
    Zr4    O103      0.96950      .   S
    Zr58   O104      0.63740      .   S
    Zr34   O104      0.63740      .   S
    Zr54   O105      0.63732      .   S
    Zr30   O105      0.63732      .   S
    Zr54   O106      0.96951      .   S
    Zr10   O106      0.96951      .   S
    Zr50   O107      0.63737      .   S
    Zr26   O107      0.63737      .   S
    Zr44   O108      0.63740      .   S
    Zr20   O108      0.63740      .   S
    Zr44   O109      0.96943      .   S
    Zr4    O109      0.96943      .   S
    Zr83   O110      0.63732      .   S
    Zr17   O110      0.63732      .   S
    Zr75   O111      0.63732      .   S
    Zr14   O111      0.63732      .   S
    Zr38   O112      0.63734      .   S
    Zr14   O112      0.63734      .   S
    Zr41   O113      0.63740      .   S
    Zr17   O113      0.63740      .   S
    Zr79   O114      0.63737      .   S
    Zr20   O114      0.63737      .   S
    Zr79   O115      0.96950      .   S
    Zr10   O115      0.96950      .   S
    Zr77   O116      0.63732      .   S
    Zr23   O116      0.63732      .   S
    Zr77   O117      0.96951      .   S
    Zr11   O117      0.96951      .   S
    Zr46   O118      0.63735      .   S
    Zr22   O118      0.63735      .   S
    Zr46   O119      0.96944      .   S
    Zr11   O119      0.96944      .   S
    Zr36   O120      0.63732      .   S
    Zr12   O120      0.63732      .   S
    Zr36   O121      0.96950      .   S
    Zr0    O121      0.96950  1_445   S
    Zr81   O122      0.63740      .   S
    Zr18   O122      0.63740      .   S
    Zr81   O123      0.96949      .   S
    Zr9    O123      0.96949  1_545   S
    Zr73   O124      0.63733      .   S
    Zr13   O124      0.63733      .   S
    Zr73   O125      0.96951      .   S
    Zr0    O125      0.96951  1_455   S
    Zr43   O126      0.63729      .   S
    Zr19   O126      0.63729      .   S
    Zr43   O127      0.96943      .   S
    Zr9    O127      0.96943      .   S
    Zr13   O128      0.63738      .   S
    Zr37   O128      0.63738      .   S
    Zr12   O129      0.63738      .   S
    Zr72   O129      0.63738      .   S
    Zr22   O130      0.63734      .   S
    Zr76   O130      0.63734      .   S
    Zr19   O131      0.63740      .   S
    Zr80   O131      0.63740      .   S
    Zr23   O132      0.63740      .   S
    Zr47   O132      0.63740      .   S
    Zr18   O133      0.63729      .   S
    Zr42   O133      0.63729      .   S
    Zr0    O134      0.96941      .   S
    Zr48   O134      0.96941      .   S
    Zr0    O135      0.96949  1_545   S
    Zr61   O135      0.96949      .   S
    Zr11   O136      0.96949      .   S
    Zr52   O136      0.96949      .   S
    Zr11   O137      0.96951      .   S
    Zr71   O137      0.96951      .   S
    Zr9    O138      0.96949  1_545   S
    Zr56   O138      0.96949      .   S
    Zr9    O139      0.96943      .   S
    Zr66   O139      0.96943      .   S
    Zr48   O140      0.63737      .   S
    Zr24   O140      0.63737      .   S
    Zr61   O141      0.63738      .   S
    Zr25   O141      0.63738      .   S
    Zr52   O142      0.63737      .   S
    Zr28   O142      0.63737      .   S
    Zr56   O143      0.63740      .   S
    Zr32   O143      0.63740      .   S
    Zr66   O144      0.63729      .   S
    Zr33   O144      0.63729      .   S
    Zr71   O145      0.63733      .   S
    Zr29   O145      0.63733      .   S
    Zr42   O146      0.96943      .   S
    Zr3    O146      0.96943      .   S
    Zr72   O147      0.96949      .   S
    Zr6    O147      0.96949  1_445   S
    Zr80   O148      0.96949      .   S
    Zr3    O148      0.96949  1_565   S
    Zr37   O149      0.96949      .   S
    Zr6    O149      0.96949  1_455   S
    Zr76   O150      0.96948      .   S
    Zr5    O150      0.96948      .   S
    Zr47   O151      0.96943      .   S
    Zr5    O151      0.96943      .   S
    Zr3    O152      0.96951      .   S
    Zr67   O152      0.96951      .   S
    Zr3    O153      0.96949  1_565   S
    Zr57   O153      0.96949      .   S
    Zr6    O154      0.96951  1_545   S
    Zr49   O154      0.96951      .   S
    Zr6    O155      0.96950      .   S
    Zr60   O155      0.96950      .   S
    Zr5    O156      0.96951      .   S
    Zr53   O156      0.96951      .   S
    Zr5    O157      0.96944      .   S
    Zr70   O157      0.96944      .   S
    Zr28   O158      0.63735      .   S
    Zr70   O158      0.63735      .   S
    Zr29   O159      0.63732      .   S
    Zr53   O159      0.63732      .   S
    Zr32   O160      0.63730      .   S
    Zr67   O160      0.63730      .   S
    Zr25   O161      0.63733      .   S
    Zr49   O161      0.63733      .   S
    Zr24   O162      0.63732      .   S
    Zr60   O162      0.63732      .   S
    Zr33   O163      0.63740      .   S
    Zr57   O163      0.63740      .   S
    Zr31   O164      0.63737      .   S
    Zr55   O164      0.63737      .   S
    Zr31   O165      0.63740      .   S
    Zr68   O165      0.63740      .   S
    Zr35   O166      0.63732      .   S
    Zr59   O166      0.63732      .   S
    Zr35   O167      0.63740      .   S
    Zr65   O167      0.63740      .   S
    Zr27   O168      0.63732      .   S
    Zr51   O168      0.63732      .   S
    Zr27   O169      0.63734      .   S
    Zr62   O169      0.63734      .   S
    Zr55   O170      0.96950      .   S
    Zr4    O170      0.96950  1_544   S
    Zr68   O171      0.96943      .   S
    Zr10   O171      0.96943  1_544   S
    Zr15   O172      0.63737      .   S
    Zr74   O172      0.63737      .   S
    Zr15   O173      0.63732      .   S
    Zr39   O173      0.63732      .   S
    Zr21   O174      0.63732      .   S
    Zr78   O174      0.63732      .   S
    Zr21   O175      0.63741      .   S
    Zr45   O175      0.63741      .   S
    Zr16   O176      0.63732      .   S
    Zr82   O176      0.63732      .   S
    Zr16   O177      0.63732      .   S
    Zr40   O177      0.63732      .   S
    Zr78   O178      0.96951      .   S
    Zr4    O178      0.96951  1_544   S
    Zr45   O179      0.96950      .   S
    Zr10   O179      0.96950  1_544   S
    Zr0    O180      1.21239      .   S
    Zr6    O180      1.21239      .   S
    Zr1    O181      1.21230  1_655   S
    Zr7    O181      1.21230      .   S
    Zr2    O182      1.21238      .   S
    Zr8    O182      1.21238      .   S
    Zr3    O183      1.21239  1_565   S
    Zr9    O183      1.21239      .   S
    Zr4    O184      1.21239      .   S
    Zr10   O184      1.21239      .   S
    Zr5    O185      1.21239      .   S
    Zr11   O185      1.21239      .   S
    N186   O187      1.06960      .   S
    Zr14   O187      1.81461      .   S
    N186   O188      1.06959      .   S
    Zr18   O188      1.81460      .   S
    N186   O189      1.06962      .   S
    Zr22   O189      1.81463      .   S
    N190   O191      1.06958      .   S
    Zr12   O191      1.81461      .   S
    N190   O192      1.06962      .   S
    Zr17   O192      1.81466      .   S
    N190   O193      1.06960      .   S
    Zr23   O193      1.81456      .   S
    N194   O195      1.06959      .   S
    Zr25   O195      1.81463      .   S
    N194   O196      1.06960      .   S
    Zr31   O196      1.81464      .   S
    N194   O197      1.06962      .   S
    Zr32   O197      1.81457      .   S
    N198   O199      1.06959      .   S
    Zr30   O199      1.81463      .   S
    N198   O200      1.06960      .   S
    Zr26   O200      1.81456      .   S
    N198   O201      1.06960      .   S
    Zr34   O201      1.81464      .   S
    N202   O203      1.06963      .   S
    Zr29   O203      1.81458      .   S
    N202   O204      1.06958      .   S
    Zr24   O204      1.81461      .   S
    N202   O205      1.06963      .   S
    Zr35   O205      1.81459      .   S
    N206   O207      1.06962      .   S
    Zr27   O207      1.81458      .   S
    N206   O208      1.06961      .   S
    Zr28   O208      1.81463      .   S
    N206   O209      1.06959      .   S
    Zr33   O209      1.81461      .   S
    N210   O211      1.06959      .   S
    Zr13   O211      1.81463      .   S
    N210   O212      1.06962      .   S
    Zr19   O212      1.81457      .   S
    N210   O213      1.06960      .   S
    Zr20   O213      1.81464      .   S
    N214   O215      1.06958      .   S
    Zr15   O215      1.81453      .   S
    N214   O216      1.06962      .   S
    Zr16   O216      1.81466      .   S
    N214   O217      1.06960      .   S
    Zr21   O217      1.81464      .   S
