# CIF file generated by openbabel 2.4.90, see http://openbabel.sf.net
data_I
_chemical_name_common ''
_cell_length_a 18.5949
_cell_length_b 18.5949
_cell_length_c 18.595
_cell_angle_alpha 89.9998
_cell_angle_beta 120
_cell_angle_gamma 120
_space_group_name_H-M_alt 'P 1'
_space_group_name_Hall 'P 1'
loop_
    _symmetry_equiv_pos_as_xyz
    x,y,z
loop_
    _atom_site_label
    _atom_site_type_symbol
    _atom_site_fract_x
    _atom_site_fract_y
    _atom_site_fract_z
    _atom_site_occupancy
    C0      C    0.64312   0.38652   0.61348   1.000
    C1      C    0.35689   0.38652   0.61348   1.000
    Cu2     Cu   0.00000   0.00000   0.43480   1.000
    Cu3     Cu   0.99999   0.56519   0.00000   1.000
    Cu4     Cu   0.56520   0.56520   0.00000   1.000
    Cu5     Cu   0.56519   0.99999   0.56520   1.000
    Cu6     Cu   0.56520   0.00000   0.00000   1.000
    Cu7     Cu   0.56520   0.56520   0.56520   1.000
    Cu8     Cu   0.00000   0.00000   0.56520   1.000
    Cu9     Cu   0.00001   0.43481   0.00000   1.000
    Cu10    Cu   0.43480   0.43480   0.00000   1.000
    Cu11    Cu   0.43481   0.00001   0.43480   1.000
    Cu12    Cu   0.43480   0.00000   0.00000   1.000
    Cu13    Cu   0.43480   0.43480   0.43480   1.000
    H14     H    0.76270   0.73462   0.26539   1.000
    H15     H    0.76271   0.02809   0.49732   1.000
    H16     H    0.23730   0.73462   0.26538   1.000
    H17     H    0.23730   0.50269   0.97192   1.000
    H18     H    0.23729   0.97191   0.50268   1.000
    H19     H    0.46923   0.73461   0.97192   1.000
    H20     H    0.53077   0.50269   0.26538   1.000
    H21     H    0.46923   0.73462   0.49731   1.000
    H22     H    0.53078   0.02809   0.26538   1.000
    H23     H    0.76270   0.02808   0.26538   1.000
    H24     H    0.23730   0.73462   0.97192   1.000
    H25     H    0.23731   0.50269   0.26538   1.000
    H26     H    0.76270   0.73462   0.49732   1.000
    H27     H    0.23729   0.26538   0.50268   1.000
    H28     H    0.23730   0.97192   0.73462   1.000
    H29     H    0.76270   0.26538   0.02809   1.000
    H30     H    0.76269   0.49731   0.73462   1.000
    H31     H    0.53076   0.26538   0.50269   1.000
    H32     H    0.46923   0.49732   0.73462   1.000
    H33     H    0.53077   0.26539   0.02809   1.000
    H34     H    0.46922   0.97191   0.73462   1.000
    C35     C    0.40696   0.56921   0.97617   1.000
    C36     C    0.59304   0.56921   0.16225   1.000
    H37     H    0.76270   0.26538   0.73462   1.000
    H38     H    0.76269   0.49731   0.02809   1.000
    H39     H    0.23729   0.26538   0.73462   1.000
    C40     C    0.72985   0.70015   0.29985   1.000
    C41     C    0.72985   0.02970   0.43001   1.000
    C42     C    0.27014   0.70015   0.29985   1.000
    C43     C    0.27014   0.56999   0.97030   1.000
    C44     C    0.40030   0.70015   0.97030   1.000
    C45     C    0.59970   0.57000   0.29985   1.000
    C46     C    0.40030   0.70015   0.43001   1.000
    C47     C    0.59969   0.02970   0.29985   1.000
    C48     C    0.72985   0.02970   0.29985   1.000
    C49     C    0.27014   0.70015   0.97030   1.000
    C50     C    0.27015   0.57000   0.29985   1.000
    C51     C    0.72985   0.70015   0.43001   1.000
    C52     C    0.27015   0.29985   0.56999   1.000
    C53     C    0.27015   0.97030   0.70015   1.000
    C54     C    0.72986   0.29985   0.02970   1.000
    C55     C    0.72985   0.43000   0.70015   1.000
    C56     C    0.59970   0.29985   0.56999   1.000
    C57     C    0.40030   0.43000   0.70015   1.000
    C58     C    0.59970   0.29985   0.02970   1.000
    C59     C    0.40031   0.97030   0.70015   1.000
    C60     C    0.27015   0.97030   0.56999   1.000
    C61     C    0.72986   0.29985   0.70015   1.000
    C62     C    0.72986   0.43001   0.02970   1.000
    C63     C    0.27015   0.29985   0.70015   1.000
    C64     C    0.86158   0.83775   0.43079   1.000
    C65     C    0.86158   0.02383   0.43079   1.000
    C66     C    0.13842   0.56921   0.16225   1.000
    C67     C    0.13842   0.56921   0.97617   1.000
    C68     C    0.40696   0.83775   0.43079   1.000
    C69     C    0.59304   0.02383   0.43079   1.000
    C70     C    0.59304   0.02383   0.16225   1.000
    C71     C    0.40696   0.83775   0.97617   1.000
    C72     C    0.40696   0.56921   0.43079   1.000
    C73     C    0.59304   0.56921   0.43079   1.000
    C74     C    0.13842   0.16225   0.56921   1.000
    C75     C    0.13842   0.97617   0.56921   1.000
    C76     C    0.86158   0.43079   0.02383   1.000
    C77     C    0.86158   0.43079   0.83775   1.000
    C78     C    0.59304   0.43079   0.56921   1.000
    C79     C    0.40696   0.43079   0.56921   1.000
    C80     C    0.59304   0.16225   0.02383   1.000
    C81     C    0.40696   0.97617   0.83775   1.000
    C82     C    0.40696   0.97617   0.56921   1.000
    C83     C    0.59304   0.16225   0.56921   1.000
    C84     C    0.59304   0.43079   0.02383   1.000
    C85     C    0.40696   0.43079   0.83775   1.000
    C86     C    0.77303   0.74340   0.38652   1.000
    C87     C    0.77303   0.02963   0.38652   1.000
    C88     C    0.22696   0.61348   0.25660   1.000
    C89     C    0.22696   0.61348   0.97037   1.000
    C90     C    0.35688   0.61348   0.97037   1.000
    C91     C    0.64311   0.61348   0.25660   1.000
    C92     C    0.35688   0.74340   0.38652   1.000
    C93     C    0.64311   0.02963   0.38652   1.000
    C94     C    0.64311   0.02963   0.25660   1.000
    C95     C    0.35688   0.74340   0.97037   1.000
    C96     C    0.35688   0.61348   0.38652   1.000
    C97     C    0.64311   0.61348   0.38652   1.000
    C98     C    0.22697   0.25660   0.61348   1.000
    C99     C    0.22697   0.97037   0.61348   1.000
    C100    C    0.77304   0.38652   0.02963   1.000
    C101    C    0.77304   0.38652   0.74341   1.000
    C102    C    0.64312   0.25660   0.02963   1.000
    C103    C    0.35689   0.97037   0.74340   1.000
    C104    C    0.35689   0.97037   0.61348   1.000
    C105    C    0.64312   0.25660   0.61348   1.000
    C106    C    0.64312   0.38652   0.02963   1.000
    C107    C    0.35689   0.38652   0.74341   1.000
    O108    O    0.89491   0.87441   0.38627   1.000
    O109    O    0.89492   0.02051   0.50865   1.000
    O110    O    0.10507   0.61372   0.12559   1.000
    O111    O    0.10509   0.49136   0.97950   1.000
    O112    O    0.48814   0.61373   0.97950   1.000
    O113    O    0.51185   0.49135   0.12559   1.000
    O114    O    0.48813   0.87441   0.50864   1.000
    O115    O    0.51187   0.02051   0.38628   1.000
    O116    O    0.63423   0.02050   0.12558   1.000
    O117    O    0.36576   0.87441   0.97950   1.000
    O118    O    0.36578   0.49136   0.38627   1.000
    O119    O    0.63423   0.61373   0.50865   1.000
    O120    O    0.10507   0.12558   0.49135   1.000
    O121    O    0.10509   0.97950   0.61373   1.000
    O122    O    0.89493   0.38628   0.02051   1.000
    O123    O    0.89491   0.50864   0.87441   1.000
    O124    O    0.51186   0.38627   0.49135   1.000
    O125    O    0.48814   0.50864   0.61373   1.000
    O126    O    0.51186   0.12559   0.02050   1.000
    O127    O    0.48814   0.97949   0.87441   1.000
    O128    O    0.36577   0.97950   0.49135   1.000
    O129    O    0.63423   0.12558   0.61373   1.000
    O130    O    0.63424   0.50865   0.02050   1.000
    O131    O    0.36577   0.38627   0.87441   1.000
    O132    O    0.10509   0.12559   0.61373   1.000
    O133    O    0.10508   0.97949   0.49135   1.000
    O134    O    0.89493   0.38628   0.87441   1.000
    O135    O    0.89491   0.50864   0.02050   1.000
    O136    O    0.51186   0.38627   0.02050   1.000
    O137    O    0.48815   0.50865   0.87441   1.000
    O138    O    0.51187   0.12559   0.49136   1.000
    O139    O    0.48813   0.97949   0.61373   1.000
    O140    O    0.36577   0.97950   0.87442   1.000
    O141    O    0.63424   0.12559   0.02050   1.000
    O142    O    0.63422   0.50864   0.61373   1.000
    O143    O    0.36577   0.38627   0.49136   1.000
    O144    O    0.89492   0.87441   0.50865   1.000
    O145    O    0.89491   0.02050   0.38627   1.000
    O146    O    0.10507   0.61372   0.97949   1.000
    O147    O    0.10509   0.49136   0.12559   1.000
    O148    O    0.48813   0.61372   0.50865   1.000
    O149    O    0.51186   0.49136   0.38627   1.000
    O150    O    0.48814   0.87441   0.97950   1.000
    O151    O    0.51186   0.02051   0.12559   1.000
    O152    O    0.63423   0.02050   0.50865   1.000
    O153    O    0.36577   0.87442   0.38627   1.000
    O154    O    0.36577   0.49136   0.97950   1.000
    O155    O    0.63423   0.61373   0.12559   1.000
loop_
    _geom_bond_atom_site_label_1
    _geom_bond_atom_site_label_2
    _geom_bond_distance
    _geom_bond_site_symmetry_2
    _ccdc_geom_bond_type
    Cu10   O136      1.93902      .   S
    Cu10   O113      1.93902      .   S
    Cu10   O131      1.93903  1_554   S
    Cu10   O154      1.93902  1_554   S
    Cu3    O135      1.93885      .   S
    Cu3    O110      1.93899  1_655   S
    Cu3    O123      1.93899  1_554   S
    Cu3    O146      1.93898  1_654   S
    Cu4    O130      1.93901      .   S
    Cu4    O155      1.93903      .   S
    Cu4    O137      1.93902  1_554   S
    Cu4    O112      1.93902  1_554   S
    Cu9    O122      1.93898  1_455   S
    Cu9    O147      1.93899      .   S
    Cu9    O134      1.93899  1_454   S
    Cu9    O111      1.93885  1_554   S
    O136   C84       1.27464      .   S
    O135   C76       1.27464      .   S
    O141   C80       1.27482      .   S
    O141   Cu6       1.93900      .   S
    O130   C84       1.27481      .   S
    O126   C80       1.27464      .   S
    O126   Cu12      1.93901      .   S
    O122   C76       1.27474      .   S
    C80    C102      1.49085      .   S
    C76    C100      1.49068      .   S
    C84    C106      1.49085      .   S
    H29    C54       1.09286      .   S
    H33    C58       1.09301      .   S
    H38    C62       1.09269      .   S
    C100   C54       1.39608      .   S
    C100   C62       1.39609      .   S
    C106   C58       1.39608      .   S
    C106   C62       1.39608      .   S
    C102   C54       1.39608      .   S
    C102   C58       1.39609      .   S
    O116   C70       1.27481      .   S
    O116   Cu6       1.93886      .   S
    O155   C36       1.27465      .   S
    O147   C66       1.27465      .   S
    O110   C66       1.27468      .   S
    O113   C36       1.27480      .   S
    O151   C70       1.27475      .   S
    O151   Cu12      1.93899      .   S
    C66    C88       1.49081      .   S
    C70    C94       1.49086      .   S
    C36    C91       1.49086      .   S
    C88    C42       1.39608      .   S
    C88    C50       1.39603      .   S
    C91    C45       1.39592      .   S
    C91    C40       1.39607      .   S
    C94    C47       1.39609      .   S
    C94    C48       1.39608      .   S
    H23    C48       1.09307      .   S
    H22    C47       1.09269      .   S
    H25    C50       1.09297      .   S
    H20    C45       1.09290      .   S
    H16    C42       1.09297      .   S
    H14    C40       1.09291      .   S
    C42    C92       1.39608      .   S
    C45    C97       1.39609      .   S
    C47    C93       1.39609      .   S
    C40    C86       1.39609      .   S
    C48    C87       1.39609      .   S
    C50    C96       1.39603      .   S
    O149   C73       1.27464      .   S
    O149   Cu13      1.93901      .   S
    O118   C72       1.27470      .   S
    O118   Cu13      1.93889      .   S
    O108   C64       1.27465      .   S
    O108   Cu2       1.93901  1_665   S
    O153   C68       1.27480      .   S
    O153   Cu11      1.93898  1_565   S
    O145   C65       1.27465      .   S
    O145   Cu2       1.93902  1_655   S
    O115   C69       1.27458      .   S
    O115   Cu11      1.93886      .   S
    C93    C41       1.39608      .   S
    C93    C69       1.49069      .   S
    C96    C46       1.39608      .   S
    C96    C72       1.49081      .   S
    C97    C51       1.39607      .   S
    C97    C73       1.49069      .   S
    C87    C41       1.39609      .   S
    C87    C65       1.49085      .   S
    C86    C51       1.39608      .   S
    C86    C64       1.49084      .   S
    C92    C46       1.39608      .   S
    C92    C68       1.49080      .   S
    C51    H26       1.09292      .   S
    C46    H21       1.09281      .   S
    C41    H15       1.09286      .   S
    C65    O109      1.27475      .   S
    C64    O144      1.27475      .   S
    C72    O148      1.27468      .   S
    C69    O152      1.27481      .   S
    C73    O119      1.27481      .   S
    C68    O114      1.27458      .   S
    Cu2    O120      1.93882      .   S
    Cu2    O133      1.93898  1_545   S
    Cu13   O124      1.93899      .   S
    Cu13   O143      1.93902      .   S
    Cu11   O128      1.93899  1_545   S
    Cu11   O138      1.93886      .   S
    O120   C74       1.27474      .   S
    O133   C75       1.27475      .   S
    O124   C78       1.27475      .   S
    O128   C82       1.27481      .   S
    O138   C83       1.27458      .   S
    O143   C79       1.27465      .   S
    H18    C60       1.09286      .   S
    H27    C52       1.09286      .   S
    H31    C56       1.09286      .   S
    O114   Cu5       1.93886      .   S
    O144   Cu8       1.93898  1_665   S
    O152   Cu5       1.93899  1_545   S
    O109   Cu8       1.93898  1_655   S
    O148   Cu7       1.93896      .   S
    O119   Cu7       1.93885      .   S
    Cu5    O139      1.93902      .   S
    Cu5    O129      1.93898  1_565   S
    Cu8    O121      1.93902  1_545   S
    Cu8    O132      1.93901      .   S
    Cu7    O125      1.93901      .   S
    Cu7    O142      1.93889      .   S
    C78    C0        1.49081      .   S
    C78    O142      1.27470      .   S
    C79    C1        1.49069      .   S
    C79    O125      1.27464      .   S
    C82    C104      1.49069      .   S
    C82    O139      1.27459      .   S
    C75    C99       1.49085      .   S
    C75    O121      1.27465      .   S
    C74    C98       1.49084      .   S
    C74    O132      1.27465      .   S
    C83    C105      1.49080      .   S
    C83    O129      1.27480      .   S
    C60    C104      1.39608      .   S
    C60    C99       1.39609      .   S
    C52    C1        1.39607      .   S
    C52    C98       1.39608      .   S
    C56    C0        1.39608      .   S
    C56    C105      1.39608      .   S
    C0     C55       1.39603      .   S
    C1     C57       1.39609      .   S
    C98    C63       1.39609      .   S
    C105   C61       1.39608      .   S
    C104   C59       1.39609      .   S
    C99    C53       1.39609      .   S
    C63    H39       1.09317      .   S
    C63    C107      1.39607      .   S
    C57    H32       1.09301      .   S
    C57    C107      1.39608      .   S
    C59    H34       1.09269      .   S
    C59    C103      1.39609      .   S
    C55    H30       1.09297      .   S
    C55    C101      1.39608      .   S
    C61    H37       1.09297      .   S
    C61    C101      1.39614      .   S
    C53    H28       1.09307      .   S
    C53    C103      1.39608      .   S
    C103   C81       1.49086      .   S
    C101   C77       1.49069      .   S
    C107   C85       1.49070      .   S
    C81    O127      1.27475      .   S
    C81    O140      1.27481      .   S
    C85    O131      1.27465      .   S
    C85    O137      1.27480      .   S
    C77    O123      1.27465      .   S
    C77    O134      1.27468      .   S
    O127   Cu6       1.93899  1_566   S
    O140   Cu12      1.93886  1_566   S
    C44    C95       1.39609      .   S
    C44    C90       1.39608      .   S
    C44    H19       1.09291      .   S
    C49    C89       1.39608      .   S
    C49    C95       1.39608      .   S
    C49    H24       1.09291      .   S
    C43    C89       1.39609      .   S
    C43    C90       1.39608      .   S
    C43    H17       1.09275      .   S
    C89    C67       1.49068      .   S
    C95    C71       1.49085      .   S
    C90    C35       1.49085      .   S
    C67    O146      1.27474      .   S
    C67    O111      1.27464      .   S
    C71    O150      1.27464      .   S
    C71    O117      1.27482      .   S
    C35    O154      1.27464      .   S
    C35    O112      1.27464      .   S
    O150   Cu6       1.93901  1_566   S
    O117   Cu12      1.93900  1_566   S
    Cu2    Cu8       2.42479      .   S
    Cu3    Cu9       2.42459  1_655   S
    Cu4    Cu10      2.42476      .   S
    Cu5    Cu11      2.42478  1_565   S
    Cu6    Cu12      2.42477      .   S
    Cu7    Cu13      2.42477      .   S
