# CIF file generated by openbabel 2.4.90, see http://openbabel.sf.net
data_I
_chemical_name_common ''
_cell_length_a 18.5949
_cell_length_b 18.5949
_cell_length_c 18.595
_cell_angle_alpha 89.9998
_cell_angle_beta 120
_cell_angle_gamma 120
_space_group_name_H-M_alt 'P 1'
_space_group_name_Hall 'P 1'
loop_
    _symmetry_equiv_pos_as_xyz
    x,y,z
loop_
    _atom_site_label
    _atom_site_type_symbol
    _atom_site_fract_x
    _atom_site_fract_y
    _atom_site_fract_z
    _atom_site_occupancy
    Cu0     Cu   0.00000   0.00000   0.43480   1.000
    Cu1     Cu   0.99999   0.56519   0.00000   1.000
    Cu2     Cu   0.56520   0.56520   0.00000   1.000
    Cu3     Cu   0.56519   0.99999   0.56520   1.000
    Cu4     Cu   0.56520   0.00000   0.00000   1.000
    Cu5     Cu   0.56520   0.56520   0.56520   1.000
    Cu6     Cu   0.00000   0.00000   0.56520   1.000
    Cu7     Cu   0.00001   0.43481   0.00000   1.000
    Cu8     Cu   0.43480   0.43480   0.00000   1.000
    Cu9     Cu   0.43481   0.00001   0.43480   1.000
    Cu10    Cu   0.43480   0.00000   0.00000   1.000
    Cu11    Cu   0.43480   0.43480   0.43480   1.000
loop_
    _geom_bond_atom_site_label_1
    _geom_bond_atom_site_label_2
    _geom_bond_distance
    _geom_bond_site_symmetry_2
    _ccdc_geom_bond_type
    Cu0    Cu6       2.42479      .   S
    Cu1    Cu7       2.42459  1_655   S
    Cu2    Cu8       2.42476      .   S
    Cu3    Cu9       2.42478  1_565   S
    Cu4    Cu10      2.42477      .   S
    Cu5    Cu11      2.42477      .   S
