# CIF file generated by openbabel 2.4.90, see http://openbabel.sf.net
data_I
_chemical_name_common ''
_cell_length_a 71.5169
_cell_length_b 71.4927
_cell_length_c 71.6087
_cell_angle_alpha 89.8315
_cell_angle_beta 90.1248
_cell_angle_gamma 89.8689
_space_group_name_H-M_alt 'P 1'
_space_group_name_Hall 'P 1'
loop_
    _symmetry_equiv_pos_as_xyz
    x,y,z
loop_
    _atom_site_label
    _atom_site_type_symbol
    _atom_site_fract_x
    _atom_site_fract_y
    _atom_site_fract_z
    _atom_site_occupancy
    Cu0     Cu   0.32215   0.85570   0.82365   1.000
    Cu1     Cu   0.35713   0.82471   0.82492   1.000
    Cu2     Cu   0.32168   0.82459   0.85831   1.000
    Cu3     Cu   0.32576   0.35797   0.32496   1.000
    Cu4     Cu   0.35820   0.32388   0.32234   1.000
    Cu5     Cu   0.32584   0.32408   0.35797   1.000
    Cu6     Cu   0.82435   0.35915   0.82355   1.000
    Cu7     Cu   0.85774   0.32582   0.82325   1.000
    Cu8     Cu   0.82293   0.32620   0.85700   1.000
    Cu9     Cu   0.82402   0.85910   0.32435   1.000
    Cu10    Cu   0.85735   0.82586   0.32389   1.000
    Cu11    Cu   0.82190   0.82579   0.35714   1.000
    Cu12    Cu   0.67318   0.64301   0.32485   1.000
    Cu13    Cu   0.64129   0.67731   0.32397   1.000
    Cu14    Cu   0.67494   0.67549   0.35888   1.000
    Cu15    Cu   0.67632   0.14525   0.82275   1.000
    Cu16    Cu   0.63963   0.17480   0.82554   1.000
    Cu17    Cu   0.67807   0.18063   0.85406   1.000
    Cu18    Cu   0.17684   0.64261   0.82340   1.000
    Cu19    Cu   0.14325   0.67552   0.82321   1.000
    Cu20    Cu   0.17814   0.67469   0.85720   1.000
    Cu21    Cu   0.17496   0.14409   0.31995   1.000
    Cu22    Cu   0.13598   0.16806   0.32957   1.000
    Cu23    Cu   0.17751   0.17754   0.35270   1.000
    Cu24    Cu   0.67451   0.35608   0.67508   1.000
    Cu25    Cu   0.64164   0.32215   0.67545   1.000
    Cu26    Cu   0.67628   0.32274   0.64200   1.000
    Cu27    Cu   0.67665   0.85802   0.17712   1.000
    Cu28    Cu   0.64236   0.82605   0.17828   1.000
    Cu29    Cu   0.67516   0.82621   0.14255   1.000
    Cu30    Cu   0.17489   0.35683   0.17466   1.000
    Cu31    Cu   0.14142   0.32390   0.17613   1.000
    Cu32    Cu   0.17464   0.32359   0.14119   1.000
    Cu33    Cu   0.17648   0.85716   0.67396   1.000
    Cu34    Cu   0.14287   0.82401   0.67616   1.000
    Cu35    Cu   0.17681   0.82324   0.64178   1.000
    Cu36    Cu   0.32106   0.64553   0.67707   1.000
    Cu37    Cu   0.35858   0.67404   0.67704   1.000
    Cu38    Cu   0.32201   0.68092   0.64595   1.000
    Cu39    Cu   0.32472   0.14302   0.17326   1.000
    Cu40    Cu   0.35715   0.17725   0.17366   1.000
    Cu41    Cu   0.32180   0.17702   0.14075   1.000
    Cu42    Cu   0.82003   0.64757   0.18108   1.000
    Cu43    Cu   0.85857   0.67394   0.17743   1.000
    Cu44    Cu   0.82222   0.67780   0.14534   1.000
    Cu45    Cu   0.82424   0.14396   0.67460   1.000
    Cu46    Cu   0.86080   0.17274   0.66888   1.000
    Cu47    Cu   0.81788   0.18251   0.64868   1.000
    Cu48    Cu   0.35909   0.32402   0.67617   1.000
    Cu49    Cu   0.32592   0.35702   0.67839   1.000
    Cu50    Cu   0.32570   0.32374   0.64307   1.000
    Cu51    Cu   0.35798   0.82696   0.17645   1.000
    Cu52    Cu   0.32335   0.85874   0.17508   1.000
    Cu53    Cu   0.32576   0.82295   0.14255   1.000
    Cu54    Cu   0.85823   0.32495   0.17841   1.000
    Cu55    Cu   0.82573   0.35889   0.17702   1.000
    Cu56    Cu   0.82651   0.32455   0.14316   1.000
    Cu57    Cu   0.85603   0.82366   0.67554   1.000
    Cu58    Cu   0.82373   0.85819   0.67369   1.000
    Cu59    Cu   0.82386   0.82270   0.64116   1.000
    Cu60    Cu   0.64460   0.67626   0.67372   1.000
    Cu61    Cu   0.67776   0.64275   0.67752   1.000
    Cu62    Cu   0.67684   0.67296   0.63967   1.000
    Cu63    Cu   0.64428   0.17437   0.17806   1.000
    Cu64    Cu   0.67714   0.14096   0.17714   1.000
    Cu65    Cu   0.67546   0.17512   0.14271   1.000
    Cu66    Cu   0.14386   0.67482   0.17634   1.000
    Cu67    Cu   0.17570   0.64005   0.17645   1.000
    Cu68    Cu   0.17700   0.67464   0.14278   1.000
    Cu69    Cu   0.14306   0.17697   0.67506   1.000
    Cu70    Cu   0.17420   0.14165   0.67783   1.000
    Cu71    Cu   0.17619   0.17396   0.64184   1.000
    Cu72    Cu   0.35659   0.67637   0.32507   1.000
    Cu73    Cu   0.32318   0.64291   0.32489   1.000
    Cu74    Cu   0.32405   0.67694   0.35892   1.000
    Cu75    Cu   0.35656   0.17728   0.82531   1.000
    Cu76    Cu   0.32398   0.14358   0.82535   1.000
    Cu77    Cu   0.32421   0.17869   0.85896   1.000
    Cu78    Cu   0.85541   0.67475   0.82140   1.000
    Cu79    Cu   0.82424   0.63983   0.82396   1.000
    Cu80    Cu   0.82456   0.67495   0.85712   1.000
    Cu81    Cu   0.85718   0.17662   0.32522   1.000
    Cu82    Cu   0.82622   0.14117   0.32320   1.000
    Cu83    Cu   0.82385   0.17431   0.35828   1.000
    Cu84    Cu   0.64454   0.32131   0.32293   1.000
    Cu85    Cu   0.67529   0.35661   0.32505   1.000
    Cu86    Cu   0.67435   0.32165   0.35898   1.000
    Cu87    Cu   0.64744   0.82044   0.82029   1.000
    Cu88    Cu   0.67544   0.85797   0.82457   1.000
    Cu89    Cu   0.67469   0.82314   0.85830   1.000
    Cu90    Cu   0.14337   0.32631   0.82474   1.000
    Cu91    Cu   0.17808   0.35792   0.82563   1.000
    Cu92    Cu   0.17523   0.32294   0.85916   1.000
    Cu93    Cu   0.14186   0.82310   0.32632   1.000
    Cu94    Cu   0.17314   0.85800   0.32296   1.000
    Cu95    Cu   0.17658   0.82459   0.35798   1.000
    Cu96    Cu   0.07633   0.99850   0.07729   1.000
    Cu97    Cu   0.10227   0.99837   0.10373   1.000
    Cu98    Cu   0.92092   0.00045   0.07663   1.000
    Cu99    Cu   0.89438   0.00083   0.10227   1.000
    Cu100   Cu   0.99894   0.07859   0.07649   1.000
    Cu101   Cu   0.99924   0.10479   0.10247   1.000
    Cu102   Cu   0.99811   0.92061   0.07741   1.000
    Cu103   Cu   0.99747   0.89468   0.10387   1.000
    Cu104   Cu   0.07773   0.99826   0.92143   1.000
    Cu105   Cu   0.10429   0.99753   0.89579   1.000
    Cu106   Cu   0.92326   0.00006   0.91925   1.000
    Cu107   Cu   0.89722   0.00018   0.89292   1.000
    Cu108   Cu   0.07846   0.07657   0.99892   1.000
    Cu109   Cu   0.10494   0.10235   0.99920   1.000
    Cu110   Cu   0.07620   0.91901   0.00081   1.000
    Cu111   Cu   0.10257   0.89296   0.00106   1.000
    Cu112   Cu   0.92252   0.07880   0.99718   1.000
    Cu113   Cu   0.89625   0.10490   0.99660   1.000
    Cu114   Cu   0.92122   0.92190   0.99825   1.000
    Cu115   Cu   0.89453   0.89630   0.99807   1.000
    Cu116   Cu   0.00104   0.07802   0.91997   1.000
    Cu117   Cu   0.00165   0.10410   0.89369   1.000
    Cu118   Cu   0.99972   0.92006   0.92155   1.000
    Cu119   Cu   0.99973   0.89383   0.89551   1.000
    Cu120   Cu   0.00158   0.42188   0.42250   1.000
    Cu121   Cu   0.00140   0.39597   0.39621   1.000
    Cu122   Cu   0.99986   0.57923   0.42378   1.000
    Cu123   Cu   0.99957   0.60547   0.39759   1.000
    Cu124   Cu   0.92162   0.50008   0.42279   1.000
    Cu125   Cu   0.89590   0.50041   0.39617   1.000
    Cu126   Cu   0.07822   0.50081   0.42164   1.000
    Cu127   Cu   0.10412   0.50146   0.39529   1.000
    Cu128   Cu   0.00134   0.42161   0.57666   1.000
    Cu129   Cu   0.00151   0.39505   0.60249   1.000
    Cu130   Cu   0.00068   0.57696   0.57796   1.000
    Cu131   Cu   0.00061   0.60287   0.60434   1.000
    Cu132   Cu   0.92141   0.42174   0.49940   1.000
    Cu133   Cu   0.89565   0.39525   0.49939   1.000
    Cu134   Cu   0.08064   0.42255   0.49922   1.000
    Cu135   Cu   0.10698   0.39648   0.49921   1.000
    Cu136   Cu   0.92174   0.57850   0.50053   1.000
    Cu137   Cu   0.89542   0.60458   0.50093   1.000
    Cu138   Cu   0.07896   0.57826   0.50078   1.000
    Cu139   Cu   0.10510   0.60442   0.50080   1.000
    Cu140   Cu   0.92227   0.49904   0.57785   1.000
    Cu141   Cu   0.89635   0.49887   0.60418   1.000
    Cu142   Cu   0.07966   0.49935   0.57817   1.000
    Cu143   Cu   0.10568   0.49918   0.60452   1.000
    Cu144   Cu   0.50037   0.92273   0.42229   1.000
    Cu145   Cu   0.50100   0.89666   0.39610   1.000
    Cu146   Cu   0.49847   0.07771   0.42146   1.000
    Cu147   Cu   0.49830   0.10431   0.39568   1.000
    Cu148   Cu   0.42082   0.99969   0.42119   1.000
    Cu149   Cu   0.39470   0.99941   0.39496   1.000
    Cu150   Cu   0.57816   0.00156   0.42257   1.000
    Cu151   Cu   0.60443   0.00166   0.39658   1.000
    Cu152   Cu   0.50002   0.92175   0.57848   1.000
    Cu153   Cu   0.50030   0.89534   0.60451   1.000
    Cu154   Cu   0.49772   0.07768   0.57987   1.000
    Cu155   Cu   0.49737   0.10424   0.60553   1.000
    Cu156   Cu   0.42226   0.92142   0.49943   1.000
    Cu157   Cu   0.39627   0.89512   0.49955   1.000
    Cu158   Cu   0.57809   0.92317   0.50106   1.000
    Cu159   Cu   0.60469   0.89732   0.50115   1.000
    Cu160   Cu   0.42040   0.07617   0.50008   1.000
    Cu161   Cu   0.39411   0.10232   0.49995   1.000
    Cu162   Cu   0.57676   0.07823   0.50106   1.000
    Cu163   Cu   0.60220   0.10507   0.50127   1.000
    Cu164   Cu   0.42157   0.99928   0.57912   1.000
    Cu165   Cu   0.39503   0.99858   0.60484   1.000
    Cu166   Cu   0.57663   0.00125   0.57906   1.000
    Cu167   Cu   0.60283   0.00114   0.60531   1.000
    Cu168   Cu   0.50000   0.42259   0.92220   1.000
    Cu169   Cu   0.49932   0.39609   0.89649   1.000
    Cu170   Cu   0.50169   0.57758   0.92062   1.000
    Cu171   Cu   0.50181   0.60366   0.89428   1.000
    Cu172   Cu   0.42245   0.50092   0.92290   1.000
    Cu173   Cu   0.39589   0.50130   0.89707   1.000
    Cu174   Cu   0.57864   0.49932   0.92220   1.000
    Cu175   Cu   0.60526   0.49874   0.89659   1.000
    Cu176   Cu   0.50058   0.42359   0.08077   1.000
    Cu177   Cu   0.50022   0.39760   0.10713   1.000
    Cu178   Cu   0.50169   0.57968   0.07877   1.000
    Cu179   Cu   0.50231   0.60568   0.10500   1.000
    Cu180   Cu   0.42179   0.42409   0.00205   1.000
    Cu181   Cu   0.39575   0.39787   0.00232   1.000
    Cu182   Cu   0.57680   0.42136   0.00159   1.000
    Cu183   Cu   0.60262   0.39473   0.00159   1.000
    Cu184   Cu   0.42508   0.58048   0.00015   1.000
    Cu185   Cu   0.39907   0.60691   0.99967   1.000
    Cu186   Cu   0.57864   0.57801   0.00040   1.000
    Cu187   Cu   0.60498   0.60401   0.99984   1.000
    Cu188   Cu   0.42281   0.50247   0.07919   1.000
    Cu189   Cu   0.39656   0.50321   0.10516   1.000
    Cu190   Cu   0.57996   0.49999   0.07797   1.000
    Cu191   Cu   0.60631   0.49998   0.10402   1.000
loop_
    _geom_bond_atom_site_label_1
    _geom_bond_atom_site_label_2
    _geom_bond_distance
    _geom_bond_site_symmetry_2
    _ccdc_geom_bond_type
    Cu96   Cu97      2.64781      .   S
    Cu98   Cu99      2.64380      .   S
    Cu100  Cu101     2.64397      .   S
    Cu102  Cu103     2.64744      .   S
    Cu104  Cu105     2.64521      .   S
    Cu106  Cu107     2.64721      .   S
    Cu108  Cu109     2.64570      .   S
    Cu110  Cu111     2.64745      .   S
    Cu112  Cu113     2.64507      .   S
    Cu114  Cu115     2.64751      .   S
    Cu116  Cu117     2.64574      .   S
    Cu118  Cu119     2.64844      .   S
    Cu120  Cu121     2.64502      .   S
    Cu122  Cu123     2.64875      .   S
    Cu124  Cu125     2.64612      .   S
    Cu126  Cu127     2.64737      .   S
    Cu128  Cu129     2.64691      .   S
    Cu130  Cu131     2.64960      .   S
    Cu132  Cu133     2.64511      .   S
    Cu134  Cu135     2.64694      .   S
    Cu136  Cu137     2.64668      .   S
    Cu138  Cu139     2.64739      .   S
    Cu140  Cu141     2.64699      .   S
    Cu142  Cu143     2.64723      .   S
    Cu144  Cu145     2.64832      .   S
    Cu146  Cu147     2.64646      .   S
    Cu148  Cu149     2.64632      .   S
    Cu150  Cu151     2.64739      .   S
    Cu152  Cu153     2.64930      .   S
    Cu154  Cu155     2.64633      .   S
    Cu156  Cu157     2.64694      .   S
    Cu158  Cu159     2.64919      .   S
    Cu160  Cu161     2.64841      .   S
    Cu162  Cu163     2.64735      .   S
    Cu164  Cu165     2.64809      .   S
    Cu166  Cu167     2.65120      .   S
    Cu168  Cu169     2.64608      .   S
    Cu170  Cu171     2.64833      .   S
    Cu172  Cu173     2.64843      .   S
    Cu174  Cu175     2.64662      .   S
    Cu176  Cu177     2.64500      .   S
    Cu178  Cu179     2.64683      .   S
    Cu180  Cu181     2.64544      .   S
    Cu182  Cu183     2.64922      .   S
    Cu184  Cu185     2.64859  1_554   S
    Cu186  Cu187     2.64976  1_554   S
    Cu188  Cu189     2.64591      .   S
    Cu190  Cu191     2.64871      .   S
