# CIF file generated by openbabel 2.4.90, see http://openbabel.sf.net
data_I
_chemical_name_common ''
_cell_length_a 71.5169
_cell_length_b 71.4927
_cell_length_c 71.6087
_cell_angle_alpha 89.8315
_cell_angle_beta 90.1248
_cell_angle_gamma 89.8689
_space_group_name_H-M_alt 'P 1'
_space_group_name_Hall 'P 1'
loop_
    _symmetry_equiv_pos_as_xyz
    x,y,z
loop_
    _atom_site_label
    _atom_site_type_symbol
    _atom_site_fract_x
    _atom_site_fract_y
    _atom_site_fract_z
    _atom_site_occupancy
    Zr0     Zr   0.32576   0.35797   0.32496   1.000
    Zr1     Zr   0.35820   0.32388   0.32234   1.000
    Zr2     Zr   0.32584   0.32408   0.35797   1.000
    Zr3     Zr   0.32215   0.85570   0.82365   1.000
    Zr4     Zr   0.35713   0.82471   0.82492   1.000
    Zr5     Zr   0.32168   0.82459   0.85831   1.000
    Zr6     Zr   0.82435   0.35915   0.82355   1.000
    Zr7     Zr   0.85774   0.32582   0.82325   1.000
    Zr8     Zr   0.82293   0.32620   0.85700   1.000
    Zr9     Zr   0.82402   0.85910   0.32435   1.000
    Zr10    Zr   0.85735   0.82586   0.32389   1.000
    Zr11    Zr   0.82190   0.82579   0.35714   1.000
    Zr12    Zr   0.67318   0.64301   0.32485   1.000
    Zr13    Zr   0.64129   0.67731   0.32397   1.000
    Zr14    Zr   0.67494   0.67549   0.35888   1.000
    Zr15    Zr   0.67632   0.14525   0.82275   1.000
    Zr16    Zr   0.63963   0.17480   0.82554   1.000
    Zr17    Zr   0.67807   0.18063   0.85406   1.000
    Zr18    Zr   0.17684   0.64261   0.82340   1.000
    Zr19    Zr   0.14325   0.67552   0.82321   1.000
    Zr20    Zr   0.17814   0.67469   0.85720   1.000
    Zr21    Zr   0.17496   0.14409   0.31995   1.000
    Zr22    Zr   0.13598   0.16806   0.32957   1.000
    Zr23    Zr   0.17751   0.17754   0.35270   1.000
    Zr24    Zr   0.67451   0.35608   0.67508   1.000
    Zr25    Zr   0.64164   0.32215   0.67545   1.000
    Zr26    Zr   0.67628   0.32274   0.64200   1.000
    Zr27    Zr   0.67665   0.85802   0.17712   1.000
    Zr28    Zr   0.64236   0.82605   0.17828   1.000
    Zr29    Zr   0.67516   0.82621   0.14255   1.000
    Zr30    Zr   0.17489   0.35683   0.17466   1.000
    Zr31    Zr   0.14142   0.32390   0.17613   1.000
    Zr32    Zr   0.17464   0.32359   0.14119   1.000
    Zr33    Zr   0.17648   0.85716   0.67396   1.000
    Zr34    Zr   0.14287   0.82401   0.67616   1.000
    Zr35    Zr   0.17681   0.82324   0.64178   1.000
    Zr36    Zr   0.32106   0.64553   0.67707   1.000
    Zr37    Zr   0.35858   0.67404   0.67704   1.000
    Zr38    Zr   0.32201   0.68092   0.64595   1.000
    Zr39    Zr   0.32472   0.14302   0.17326   1.000
    Zr40    Zr   0.35715   0.17725   0.17366   1.000
    Zr41    Zr   0.32180   0.17702   0.14075   1.000
    Zr42    Zr   0.82003   0.64757   0.18108   1.000
    Zr43    Zr   0.85857   0.67394   0.17743   1.000
    Zr44    Zr   0.82222   0.67780   0.14534   1.000
    Zr45    Zr   0.82424   0.14396   0.67460   1.000
    Zr46    Zr   0.86080   0.17274   0.66888   1.000
    Zr47    Zr   0.81788   0.18251   0.64868   1.000
    Zr48    Zr   0.35909   0.32402   0.67617   1.000
    Zr49    Zr   0.32592   0.35702   0.67839   1.000
    Zr50    Zr   0.32570   0.32374   0.64307   1.000
    Zr51    Zr   0.35798   0.82696   0.17645   1.000
    Zr52    Zr   0.32335   0.85874   0.17508   1.000
    Zr53    Zr   0.32576   0.82295   0.14255   1.000
    Zr54    Zr   0.85823   0.32495   0.17841   1.000
    Zr55    Zr   0.82573   0.35889   0.17702   1.000
    Zr56    Zr   0.82651   0.32455   0.14316   1.000
    Zr57    Zr   0.85603   0.82366   0.67554   1.000
    Zr58    Zr   0.82373   0.85819   0.67369   1.000
    Zr59    Zr   0.82386   0.82270   0.64116   1.000
    Zr60    Zr   0.64460   0.67626   0.67372   1.000
    Zr61    Zr   0.67776   0.64275   0.67752   1.000
    Zr62    Zr   0.67684   0.67296   0.63967   1.000
    Zr63    Zr   0.64428   0.17437   0.17806   1.000
    Zr64    Zr   0.67714   0.14096   0.17714   1.000
    Zr65    Zr   0.67546   0.17512   0.14271   1.000
    Zr66    Zr   0.14386   0.67482   0.17634   1.000
    Zr67    Zr   0.17570   0.64005   0.17645   1.000
    Zr68    Zr   0.17700   0.67464   0.14278   1.000
    Zr69    Zr   0.14306   0.17697   0.67506   1.000
    Zr70    Zr   0.17420   0.14165   0.67783   1.000
    Zr71    Zr   0.17619   0.17396   0.64184   1.000
    Zr72    Zr   0.35659   0.67637   0.32507   1.000
    Zr73    Zr   0.32318   0.64291   0.32489   1.000
    Zr74    Zr   0.32405   0.67694   0.35892   1.000
    Zr75    Zr   0.35656   0.17728   0.82531   1.000
    Zr76    Zr   0.32398   0.14358   0.82535   1.000
    Zr77    Zr   0.32421   0.17869   0.85896   1.000
    Zr78    Zr   0.85541   0.67475   0.82140   1.000
    Zr79    Zr   0.82424   0.63983   0.82396   1.000
    Zr80    Zr   0.82456   0.67495   0.85712   1.000
    Zr81    Zr   0.85718   0.17662   0.32522   1.000
    Zr82    Zr   0.82622   0.14117   0.32320   1.000
    Zr83    Zr   0.82385   0.17431   0.35828   1.000
    Zr84    Zr   0.64454   0.32131   0.32293   1.000
    Zr85    Zr   0.67529   0.35661   0.32505   1.000
    Zr86    Zr   0.67435   0.32165   0.35898   1.000
    Zr87    Zr   0.64744   0.82044   0.82029   1.000
    Zr88    Zr   0.67544   0.85797   0.82457   1.000
    Zr89    Zr   0.67469   0.82314   0.85830   1.000
    Zr90    Zr   0.14337   0.32631   0.82474   1.000
    Zr91    Zr   0.17808   0.35792   0.82563   1.000
    Zr92    Zr   0.17523   0.32294   0.85916   1.000
    Zr93    Zr   0.14186   0.82310   0.32632   1.000
    Zr94    Zr   0.17314   0.85800   0.32296   1.000
    Zr95    Zr   0.17658   0.82459   0.35798   1.000
    Zr96    Zr   0.07633   0.99850   0.07729   1.000
    Zr97    Zr   0.10227   0.99837   0.10373   1.000
    Zr98    Zr   0.92092   0.00045   0.07663   1.000
    Zr99    Zr   0.89438   0.00083   0.10227   1.000
    Zr100   Zr   0.99894   0.07859   0.07649   1.000
    Zr101   Zr   0.99924   0.10479   0.10247   1.000
    Zr102   Zr   0.99811   0.92061   0.07741   1.000
    Zr103   Zr   0.99747   0.89468   0.10387   1.000
    Zr104   Zr   0.07773   0.99826   0.92143   1.000
    Zr105   Zr   0.10429   0.99753   0.89579   1.000
    Zr106   Zr   0.92326   0.00006   0.91925   1.000
    Zr107   Zr   0.89722   0.00018   0.89292   1.000
    Zr108   Zr   0.07846   0.07657   0.99892   1.000
    Zr109   Zr   0.10494   0.10235   0.99920   1.000
    Zr110   Zr   0.07620   0.91901   0.00081   1.000
    Zr111   Zr   0.10257   0.89296   0.00106   1.000
    Zr112   Zr   0.92252   0.07880   0.99718   1.000
    Zr113   Zr   0.89625   0.10490   0.99660   1.000
    Zr114   Zr   0.92122   0.92190   0.99825   1.000
    Zr115   Zr   0.89453   0.89630   0.99807   1.000
    Zr116   Zr   0.00104   0.07802   0.91997   1.000
    Zr117   Zr   0.00165   0.10410   0.89369   1.000
    Zr118   Zr   0.99972   0.92006   0.92155   1.000
    Zr119   Zr   0.99973   0.89383   0.89551   1.000
    Zr120   Zr   0.00158   0.42188   0.42250   1.000
    Zr121   Zr   0.00140   0.39597   0.39621   1.000
    Zr122   Zr   0.99986   0.57923   0.42378   1.000
    Zr123   Zr   0.99957   0.60547   0.39759   1.000
    Zr124   Zr   0.92162   0.50008   0.42279   1.000
    Zr125   Zr   0.89590   0.50041   0.39617   1.000
    Zr126   Zr   0.07822   0.50081   0.42164   1.000
    Zr127   Zr   0.10412   0.50146   0.39529   1.000
    Zr128   Zr   0.00134   0.42161   0.57666   1.000
    Zr129   Zr   0.00151   0.39505   0.60249   1.000
    Zr130   Zr   0.00068   0.57696   0.57796   1.000
    Zr131   Zr   0.00061   0.60287   0.60434   1.000
    Zr132   Zr   0.92141   0.42174   0.49940   1.000
    Zr133   Zr   0.89565   0.39525   0.49939   1.000
    Zr134   Zr   0.08064   0.42255   0.49922   1.000
    Zr135   Zr   0.10698   0.39648   0.49921   1.000
    Zr136   Zr   0.92174   0.57850   0.50053   1.000
    Zr137   Zr   0.89542   0.60458   0.50093   1.000
    Zr138   Zr   0.07896   0.57826   0.50078   1.000
    Zr139   Zr   0.10510   0.60442   0.50080   1.000
    Zr140   Zr   0.92227   0.49904   0.57785   1.000
    Zr141   Zr   0.89635   0.49887   0.60418   1.000
    Zr142   Zr   0.07966   0.49935   0.57817   1.000
    Zr143   Zr   0.10568   0.49918   0.60452   1.000
    Zr144   Zr   0.50037   0.92273   0.42229   1.000
    Zr145   Zr   0.50100   0.89666   0.39610   1.000
    Zr146   Zr   0.49847   0.07771   0.42146   1.000
    Zr147   Zr   0.49830   0.10431   0.39568   1.000
    Zr148   Zr   0.42082   0.99969   0.42119   1.000
    Zr149   Zr   0.39470   0.99941   0.39496   1.000
    Zr150   Zr   0.57816   0.00156   0.42257   1.000
    Zr151   Zr   0.60443   0.00166   0.39658   1.000
    Zr152   Zr   0.50002   0.92175   0.57848   1.000
    Zr153   Zr   0.50030   0.89534   0.60451   1.000
    Zr154   Zr   0.49772   0.07768   0.57987   1.000
    Zr155   Zr   0.49737   0.10424   0.60553   1.000
    Zr156   Zr   0.42226   0.92142   0.49943   1.000
    Zr157   Zr   0.39627   0.89512   0.49955   1.000
    Zr158   Zr   0.57809   0.92317   0.50106   1.000
    Zr159   Zr   0.60469   0.89732   0.50115   1.000
    Zr160   Zr   0.42040   0.07617   0.50008   1.000
    Zr161   Zr   0.39411   0.10232   0.49995   1.000
    Zr162   Zr   0.57676   0.07823   0.50106   1.000
    Zr163   Zr   0.60220   0.10507   0.50127   1.000
    Zr164   Zr   0.42157   0.99928   0.57912   1.000
    Zr165   Zr   0.39503   0.99858   0.60484   1.000
    Zr166   Zr   0.57663   0.00125   0.57906   1.000
    Zr167   Zr   0.60283   0.00114   0.60531   1.000
    Zr168   Zr   0.50000   0.42259   0.92220   1.000
    Zr169   Zr   0.49932   0.39609   0.89649   1.000
    Zr170   Zr   0.50169   0.57758   0.92062   1.000
    Zr171   Zr   0.50181   0.60366   0.89428   1.000
    Zr172   Zr   0.42245   0.50092   0.92290   1.000
    Zr173   Zr   0.39589   0.50130   0.89707   1.000
    Zr174   Zr   0.57864   0.49932   0.92220   1.000
    Zr175   Zr   0.60526   0.49874   0.89659   1.000
    Zr176   Zr   0.50058   0.42359   0.08077   1.000
    Zr177   Zr   0.50022   0.39760   0.10713   1.000
    Zr178   Zr   0.50169   0.57968   0.07877   1.000
    Zr179   Zr   0.50231   0.60568   0.10500   1.000
    Zr180   Zr   0.42179   0.42409   0.00205   1.000
    Zr181   Zr   0.39575   0.39787   0.00232   1.000
    Zr182   Zr   0.57680   0.42136   0.00159   1.000
    Zr183   Zr   0.60262   0.39473   0.00159   1.000
    Zr184   Zr   0.42508   0.58048   0.00015   1.000
    Zr185   Zr   0.39907   0.60691   0.99967   1.000
    Zr186   Zr   0.57864   0.57801   0.00040   1.000
    Zr187   Zr   0.60498   0.60401   0.99984   1.000
    Zr188   Zr   0.42281   0.50247   0.07919   1.000
    Zr189   Zr   0.39656   0.50321   0.10516   1.000
    Zr190   Zr   0.57996   0.49999   0.07797   1.000
    Zr191   Zr   0.60631   0.49998   0.10402   1.000
    O192    O    0.08930   0.99844   0.09051   1.000
    O193    O    0.90765   0.00064   0.08945   1.000
    O194    O    0.99909   0.09169   0.08948   1.000
    O195    O    0.99779   0.90765   0.09064   1.000
    O196    O    0.09101   0.99790   0.90861   1.000
    O197    O    0.91024   0.00012   0.90609   1.000
    O198    O    0.09170   0.08946   0.99906   1.000
    O199    O    0.08939   0.90598   0.00094   1.000
    O200    O    0.90939   0.09185   0.99689   1.000
    O201    O    0.90788   0.90910   0.99816   1.000
    O202    O    0.00134   0.09106   0.90683   1.000
    O203    O    0.99973   0.90695   0.90853   1.000
    O204    O    0.00149   0.40893   0.40936   1.000
    O205    O    0.99971   0.59235   0.41069   1.000
    O206    O    0.90876   0.50025   0.40948   1.000
    O207    O    0.09117   0.50114   0.40847   1.000
    O208    O    0.00142   0.40833   0.58958   1.000
    O209    O    0.00065   0.58992   0.59115   1.000
    O210    O    0.90853   0.40850   0.49940   1.000
    O211    O    0.09381   0.40952   0.49922   1.000
    O212    O    0.90858   0.59154   0.50073   1.000
    O213    O    0.09203   0.59134   0.50079   1.000
    O214    O    0.90931   0.49896   0.59102   1.000
    O215    O    0.09267   0.49927   0.59135   1.000
    O216    O    0.50068   0.90970   0.40920   1.000
    O217    O    0.49839   0.09101   0.40857   1.000
    O218    O    0.40776   0.99955   0.40808   1.000
    O219    O    0.59130   0.00161   0.40957   1.000
    O220    O    0.50016   0.90855   0.59150   1.000
    O221    O    0.49755   0.09096   0.59270   1.000
    O222    O    0.40927   0.90827   0.49949   1.000
    O223    O    0.59139   0.91025   0.50110   1.000
    O224    O    0.40726   0.08925   0.50002   1.000
    O225    O    0.58948   0.09165   0.50117   1.000
    O226    O    0.40830   0.99893   0.59198   1.000
    O227    O    0.58973   0.00120   0.59219   1.000
    O228    O    0.49966   0.40934   0.90935   1.000
    O229    O    0.50175   0.59062   0.90745   1.000
    O230    O    0.40917   0.50111   0.90999   1.000
    O231    O    0.59195   0.49903   0.90940   1.000
    O232    O    0.50040   0.41060   0.09395   1.000
    O233    O    0.50200   0.59268   0.09189   1.000
    O234    O    0.40877   0.41098   0.00219   1.000
    O235    O    0.58971   0.40805   0.00159   1.000
    O236    O    0.41208   0.59370   0.99991   1.000
    O237    O    0.59181   0.59101   0.00012   1.000
    O238    O    0.40969   0.50284   0.09218   1.000
    O239    O    0.59314   0.49999   0.09100   1.000
    N240    N    0.40795   0.41023   0.19415   1.000
    O241    O    0.38259   0.37195   0.25360   1.000
    O242    O    0.37141   0.38388   0.25446   1.000
    O243    O    0.44954   0.40773   0.15329   1.000
    O244    O    0.44972   0.41962   0.14119   1.000
    O245    O    0.40603   0.45214   0.15233   1.000
    O246    O    0.41805   0.45181   0.14042   1.000
    N247    N    0.90859   0.90852   0.80457   1.000
    O248    O    0.90659   0.94971   0.84612   1.000
    O249    O    0.87106   0.88321   0.74382   1.000
    O250    O    0.94967   0.90501   0.84736   1.000
    O251    O    0.88233   0.87126   0.74450   1.000
    O252    O    0.94966   0.91704   0.85927   1.000
    O253    O    0.91851   0.94966   0.85820   1.000
    N254    N    0.40957   0.69455   0.90865   1.000
    O255    O    0.37069   0.75488   0.88333   1.000
    O256    O    0.38292   0.75490   0.87183   1.000
    O257    O    0.40808   0.65328   0.94955   1.000
    O258    O    0.41999   0.64116   0.94976   1.000
    O259    O    0.45118   0.65186   0.90519   1.000
    O260    O    0.45112   0.63991   0.91726   1.000
    N261    N    0.19397   0.09120   0.90909   1.000
    O262    O    0.25437   0.12992   0.88386   1.000
    O263    O    0.13998   0.08119   0.94948   1.000
    O264    O    0.13968   0.04927   0.91787   1.000
    O265    O    0.25428   0.11780   0.87228   1.000
    O266    O    0.15212   0.09300   0.94961   1.000
    O267    O    0.15185   0.04894   0.90611   1.000
    N268    N    0.90862   0.19445   0.90669   1.000
    O269    O    0.88269   0.25534   0.86994   1.000
    O270    O    0.95058   0.15200   0.90391   1.000
    O271    O    0.90624   0.15234   0.94712   1.000
    O272    O    0.87067   0.25549   0.88157   1.000
    O273    O    0.91827   0.14037   0.94739   1.000
    O274    O    0.95031   0.14003   0.91595   1.000
    N275    N    0.90842   0.80522   0.90664   1.000
    O276    O    0.87132   0.74486   0.88122   1.000
    O277    O    0.90522   0.84796   0.94790   1.000
    O278    O    0.94943   0.84689   0.90473   1.000
    O279    O    0.94943   0.85892   0.91665   1.000
    O280    O    0.91745   0.85970   0.94796   1.000
    O281    O    0.88205   0.74478   0.86883   1.000
    N282    N    0.30798   0.59143   0.90868   1.000
    O283    O    0.24770   0.62809   0.88254   1.000
    O284    O    0.24726   0.61691   0.87078   1.000
    O285    O    0.34944   0.55097   0.90668   1.000
    O286    O    0.36162   0.55079   0.91851   1.000
    O287    O    0.35082   0.59538   0.94971   1.000
    O288    O    0.36273   0.58326   0.94992   1.000
    N289    N    0.91048   0.09245   0.80355   1.000
    O290    O    0.95119   0.08269   0.85794   1.000
    O291    O    0.90765   0.05083   0.84558   1.000
    O292    O    0.91958   0.05079   0.85766   1.000
    O293    O    0.95145   0.09463   0.84589   1.000
    O294    O    0.88525   0.12830   0.74148   1.000
    O295    O    0.87254   0.11828   0.74352   1.000
    N296    N    0.80648   0.09239   0.90693   1.000
    O297    O    0.74607   0.11899   0.86984   1.000
    O298    O    0.74663   0.13130   0.88068   1.000
    O299    O    0.84874   0.09489   0.94719   1.000
    O300    O    0.86113   0.05083   0.91570   1.000
    O301    O    0.84920   0.05089   0.90363   1.000
    O302    O    0.86079   0.08293   0.94746   1.000
    N303    N    0.59081   0.69355   0.90737   1.000
    O304    O    0.62783   0.75369   0.88225   1.000
    O305    O    0.61836   0.75274   0.86902   1.000
    O306    O    0.55090   0.65121   0.90460   1.000
    O307    O    0.55082   0.63925   0.91666   1.000
    O308    O    0.59410   0.65139   0.94906   1.000
    O309    O    0.58204   0.63949   0.94929   1.000
    N310    N    0.41123   0.69499   0.09413   1.000
    O311    O    0.38489   0.75593   0.13075   1.000
    O312    O    0.37368   0.75458   0.11896   1.000
    O313    O    0.45194   0.64115   0.08383   1.000
    O314    O    0.45218   0.65308   0.09584   1.000
    O315    O    0.40887   0.65364   0.05144   1.000
    O316    O    0.42079   0.64153   0.05167   1.000
    N317    N    0.09090   0.80447   0.09240   1.000
    O318    O    0.08091   0.85799   0.05115   1.000
    O319    O    0.12909   0.74431   0.11785   1.000
    O320    O    0.09298   0.84603   0.05130   1.000
    O321    O    0.04904   0.85867   0.08238   1.000
    O322    O    0.11753   0.74441   0.12945   1.000
    O323    O    0.04873   0.84677   0.09449   1.000
    N324    N    0.30688   0.90760   0.59019   1.000
    O325    O    0.24650   0.88209   0.62728   1.000
    O326    O    0.24655   0.87027   0.61611   1.000
    O327    O    0.34890   0.90512   0.54942   1.000
    O328    O    0.36082   0.91716   0.54936   1.000
    O329    O    0.34847   0.94860   0.59357   1.000
    O330    O    0.36065   0.94889   0.58180   1.000
    N331    N    0.90915   0.19418   0.09168   1.000
    O332    O    0.94953   0.14019   0.08140   1.000
    O333    O    0.94964   0.15221   0.09330   1.000
    O334    O    0.87281   0.25471   0.11793   1.000
    O335    O    0.91839   0.14028   0.04903   1.000
    O336    O    0.88383   0.25484   0.13015   1.000
    O337    O    0.90635   0.15225   0.04876   1.000
    N338    N    0.30776   0.59226   0.09158   1.000
    O339    O    0.24699   0.62833   0.11750   1.000
    O340    O    0.24653   0.61640   0.12915   1.000
    O341    O    0.35076   0.59589   0.05022   1.000
    O342    O    0.36268   0.58377   0.05045   1.000
    O343    O    0.34963   0.55231   0.09448   1.000
    O344    O    0.36167   0.55194   0.08259   1.000
    N345    N    0.09235   0.90805   0.80574   1.000
    O346    O    0.12970   0.88261   0.74474   1.000
    O347    O    0.11803   0.87110   0.74550   1.000
    O348    O    0.05067   0.91664   0.85994   1.000
    O349    O    0.05067   0.90463   0.84800   1.000
    O350    O    0.08245   0.94856   0.85981   1.000
    O351    O    0.09461   0.94824   0.84805   1.000
    N352    N    0.19511   0.40862   0.40770   1.000
    O353    O    0.25581   0.37129   0.38270   1.000
    O354    O    0.25573   0.38309   0.37128   1.000
    O355    O    0.14049   0.45009   0.41718   1.000
    O356    O    0.15234   0.45038   0.40509   1.000
    O357    O    0.14158   0.41821   0.44885   1.000
    O358    O    0.15365   0.40626   0.44880   1.000
    N359    N    0.09223   0.40889   0.30645   1.000
    O360    O    0.12888   0.38274   0.24554   1.000
    O361    O    0.11730   0.37124   0.24599   1.000
    O362    O    0.05135   0.40616   0.34858   1.000
    O363    O    0.05142   0.41803   0.36063   1.000
    O364    O    0.09437   0.45067   0.34819   1.000
    O365    O    0.08252   0.45036   0.36028   1.000
    N366    N    0.59181   0.40894   0.19548   1.000
    O367    O    0.61778   0.37038   0.25497   1.000
    O368    O    0.62853   0.38262   0.25561   1.000
    O369    O    0.58322   0.44997   0.14056   1.000
    O370    O    0.59531   0.44997   0.15248   1.000
    O371    O    0.55068   0.40697   0.15390   1.000
    O372    O    0.55081   0.41887   0.14181   1.000
    N373    N    0.90778   0.30646   0.40918   1.000
    O374    O    0.87056   0.24524   0.38373   1.000
    O375    O    0.88216   0.24607   0.37227   1.000
    O376    O    0.90547   0.34830   0.44965   1.000
    O377    O    0.91728   0.36044   0.44968   1.000
    O378    O    0.95009   0.36041   0.41848   1.000
    O379    O    0.95004   0.34853   0.40643   1.000
    N380    N    0.40832   0.90857   0.69475   1.000
    O381    O    0.38246   0.87166   0.75516   1.000
    O382    O    0.37028   0.88246   0.75473   1.000
    O383    O    0.40539   0.94897   0.65249   1.000
    O384    O    0.41754   0.94932   0.64070   1.000
    O385    O    0.44973   0.90566   0.65227   1.000
    O386    O    0.44957   0.91776   0.64034   1.000
    N387    N    0.40876   0.19314   0.40837   1.000
    O388    O    0.37231   0.25390   0.38270   1.000
    O389    O    0.38346   0.25384   0.37036   1.000
    O390    O    0.40523   0.15037   0.44965   1.000
    O391    O    0.41730   0.13841   0.44970   1.000
    O392    O    0.44897   0.15129   0.40585   1.000
    O393    O    0.44906   0.13909   0.41765   1.000
    N394    N    0.90710   0.90960   0.19331   1.000
    O395    O    0.90438   0.95057   0.15057   1.000
    O396    O    0.87048   0.88437   0.25419   1.000
    O397    O    0.94803   0.91792   0.13898   1.000
    O398    O    0.88207   0.87282   0.25399   1.000
    O399    O    0.91654   0.95043   0.13880   1.000
    O400    O    0.94777   0.90603   0.15111   1.000
    N401    N    0.58913   0.19316   0.40818   1.000
    O402    O    0.62664   0.25289   0.38316   1.000
    O403    O    0.61622   0.25284   0.37066   1.000
    O404    O    0.54837   0.13916   0.41750   1.000
    O405    O    0.54831   0.15135   0.40568   1.000
    O406    O    0.59183   0.15163   0.45013   1.000
    O407    O    0.58016   0.13934   0.45002   1.000
    N408    N    0.80695   0.58948   0.59249   1.000
    O409    O    0.74715   0.61607   0.63007   1.000
    O410    O    0.74667   0.62634   0.61688   1.000
    O411    O    0.84855   0.59323   0.55125   1.000
    O412    O    0.86062   0.58129   0.55107   1.000
    O413    O    0.84894   0.54876   0.59460   1.000
    O414    O    0.86083   0.54883   0.58254   1.000
    N415    N    0.80555   0.40743   0.40930   1.000
    O416    O    0.74513   0.38150   0.37223   1.000
    O417    O    0.74479   0.36944   0.38392   1.000
    O418    O    0.85974   0.44922   0.41861   1.000
    O419    O    0.84793   0.44939   0.40644   1.000
    O420    O    0.85965   0.41723   0.44985   1.000
    O421    O    0.84781   0.40512   0.44983   1.000
    N422    N    0.08921   0.09185   0.19212   1.000
    O423    O    0.12672   0.11786   0.25185   1.000
    O424    O    0.04860   0.08248   0.13807   1.000
    O425    O    0.04876   0.09449   0.14998   1.000
    O426    O    0.09198   0.04975   0.15044   1.000
    O427    O    0.08009   0.04982   0.13834   1.000
    O428    O    0.11317   0.12622   0.25524   1.000
    N429    N    0.90813   0.80508   0.09110   1.000
    O430    O    0.94852   0.85915   0.08161   1.000
    O431    O    0.94821   0.84726   0.09373   1.000
    O432    O    0.91719   0.85971   0.04932   1.000
    O433    O    0.90496   0.84798   0.04924   1.000
    O434    O    0.88330   0.74414   0.12915   1.000
    O435    O    0.87074   0.74552   0.11811   1.000
    N436    N    0.19238   0.90830   0.90928   1.000
    O437    O    0.25250   0.88227   0.87124   1.000
    O438    O    0.25234   0.87140   0.88331   1.000
    O439    O    0.15079   0.94835   0.90648   1.000
    O440    O    0.13861   0.94869   0.91823   1.000
    O441    O    0.13797   0.91641   0.95051   1.000
    O442    O    0.15006   0.90448   0.95063   1.000
    N443    N    0.40767   0.19323   0.59154   1.000
    O444    O    0.37173   0.25386   0.61743   1.000
    O445    O    0.38333   0.25397   0.62895   1.000
    O446    O    0.41663   0.13846   0.55042   1.000
    O447    O    0.40457   0.15043   0.55032   1.000
    O448    O    0.44786   0.15128   0.59478   1.000
    O449    O    0.44807   0.13911   0.58301   1.000
    N450    N    0.09064   0.19305   0.09074   1.000
    O451    O    0.11607   0.25383   0.12840   1.000
    O452    O    0.04944   0.13947   0.08097   1.000
    O453    O    0.12752   0.25371   0.11631   1.000
    O454    O    0.08184   0.13855   0.04936   1.000
    O455    O    0.04958   0.15150   0.09286   1.000
    O456    O    0.09398   0.15036   0.04949   1.000
    N457    N    0.09412   0.30617   0.58967   1.000
    O458    O    0.13040   0.24492   0.61567   1.000
    O459    O    0.11885   0.24599   0.62718   1.000
    O460    O    0.05245   0.34810   0.59234   1.000
    O461    O    0.05238   0.36025   0.58048   1.000
    O462    O    0.09686   0.34865   0.54907   1.000
    O463    O    0.08479   0.36060   0.54903   1.000
    N464    N    0.69319   0.90898   0.59089   1.000
    O465    O    0.75385   0.87085   0.61603   1.000
    O466    O    0.75379   0.88312   0.62726   1.000
    O467    O    0.65065   0.95054   0.59435   1.000
    O468    O    0.63867   0.95058   0.58231   1.000
    O469    O    0.65149   0.90690   0.55063   1.000
    O470    O    0.63930   0.91875   0.55056   1.000
    N471    N    0.40848   0.30848   0.90950   1.000
    O472    O    0.37131   0.24825   0.88381   1.000
    O473    O    0.38257   0.24776   0.87210   1.000
    O474    O    0.44927   0.34982   0.90683   1.000
    O475    O    0.44959   0.36198   0.91861   1.000
    O476    O    0.40588   0.35054   0.95133   1.000
    O477    O    0.41781   0.36256   0.95120   1.000
    N478    N    0.80627   0.09186   0.08932   1.000
    O479    O    0.86066   0.08263   0.04780   1.000
    O480    O    0.84777   0.05097   0.09196   1.000
    O481    O    0.74564   0.12846   0.11615   1.000
    O482    O    0.74620   0.11672   0.12808   1.000
    O483    O    0.85994   0.05077   0.08022   1.000
    O484    O    0.84863   0.09460   0.04752   1.000
    N485    N    0.59249   0.91081   0.30744   1.000
    O486    O    0.62988   0.88441   0.24716   1.000
    O487    O    0.61795   0.87330   0.24757   1.000
    O488    O    0.55122   0.90761   0.34917   1.000
    O489    O    0.55095   0.91955   0.36118   1.000
    O490    O    0.59476   0.95163   0.34935   1.000
    O491    O    0.58273   0.95159   0.36127   1.000
    N492    N    0.69488   0.59004   0.90952   1.000
    O493    O    0.75512   0.61518   0.87193   1.000
    O494    O    0.75514   0.62732   0.88336   1.000
    O495    O    0.65249   0.59322   0.95015   1.000
    O496    O    0.64043   0.58129   0.95038   1.000
    O497    O    0.65270   0.54901   0.90676   1.000
    O498    O    0.64050   0.54926   0.91849   1.000
    N499    N    0.90933   0.40944   0.30734   1.000
    O500    O    0.87236   0.38401   0.24691   1.000
    O501    O    0.88371   0.37226   0.24744   1.000
    O502    O    0.95077   0.40655   0.34927   1.000
    O503    O    0.95083   0.41843   0.36132   1.000
    O504    O    0.91817   0.45017   0.36138   1.000
    O505    O    0.90637   0.45028   0.34919   1.000
    N506    N    0.19556   0.40882   0.59235   1.000
    O507    O    0.25596   0.38274   0.63042   1.000
    O508    O    0.25586   0.37127   0.61823   1.000
    O509    O    0.15393   0.40645   0.55029   1.000
    O510    O    0.14184   0.41838   0.55032   1.000
    O511    O    0.15335   0.44947   0.59469   1.000
    O512    O    0.14142   0.44957   0.58262   1.000
    N513    N    0.59170   0.80710   0.40974   1.000
    O514    O    0.62839   0.74617   0.38402   1.000
    O515    O    0.61686   0.74679   0.37190   1.000
    O516    O    0.59447   0.84962   0.45084   1.000
    O517    O    0.58228   0.86145   0.45080   1.000
    O518    O    0.55097   0.84924   0.40664   1.000
    O519    O    0.55066   0.86118   0.41864   1.000
    N520    N    0.59157   0.59201   0.19378   1.000
    O521    O    0.62761   0.61781   0.25447   1.000
    O522    O    0.61658   0.62981   0.25418   1.000
    O523    O    0.55150   0.59496   0.15194   1.000
    O524    O    0.55119   0.58305   0.13992   1.000
    O525    O    0.59515   0.55061   0.15143   1.000
    O526    O    0.58307   0.55061   0.13950   1.000
    N527    N    0.59032   0.19261   0.59161   1.000
    O528    O    0.62853   0.25277   0.61713   1.000
    O529    O    0.61654   0.25255   0.62866   1.000
    O530    O    0.54834   0.15103   0.59468   1.000
    O531    O    0.54850   0.13885   0.58293   1.000
    O532    O    0.58073   0.13908   0.55089   1.000
    O533    O    0.59240   0.15137   0.55099   1.000
    N534    N    0.40761   0.91007   0.30587   1.000
    O535    O    0.38243   0.87353   0.24573   1.000
    O536    O    0.37037   0.88457   0.24522   1.000
    O537    O    0.40497   0.95019   0.34778   1.000
    O538    O    0.41693   0.95034   0.35981   1.000
    O539    O    0.44966   0.90702   0.34831   1.000
    O540    O    0.44938   0.91898   0.36030   1.000
    N541    N    0.90947   0.09326   0.19278   1.000
    O542    O    0.94959   0.08335   0.13838   1.000
    O543    O    0.90570   0.05159   0.15021   1.000
    O544    O    0.88369   0.13015   0.25418   1.000
    O545    O    0.87291   0.11785   0.25350   1.000
    O546    O    0.94972   0.09534   0.15031   1.000
    O547    O    0.91786   0.05142   0.13844   1.000
    N548    N    0.30616   0.40949   0.09229   1.000
    O549    O    0.24518   0.37139   0.11700   1.000
    O550    O    0.24531   0.38296   0.12860   1.000
    O551    O    0.34859   0.45176   0.09510   1.000
    O552    O    0.36063   0.45141   0.08321   1.000
    O553    O    0.34828   0.40742   0.05188   1.000
    O554    O    0.36023   0.41943   0.05175   1.000
    N555    N    0.80557   0.90970   0.09034   1.000
    O556    O    0.85968   0.91859   0.04880   1.000
    O557    O    0.84732   0.95069   0.09254   1.000
    O558    O    0.84746   0.90686   0.04869   1.000
    O559    O    0.74510   0.87287   0.11664   1.000
    O560    O    0.74560   0.88390   0.12868   1.000
    O561    O    0.85950   0.95053   0.08079   1.000
    N562    N    0.09134   0.19345   0.90656   1.000
    O563    O    0.11703   0.25494   0.87033   1.000
    O564    O    0.05109   0.15139   0.90387   1.000
    O565    O    0.08234   0.13881   0.94814   1.000
    O566    O    0.12812   0.25380   0.88229   1.000
    O567    O    0.05080   0.13943   0.91591   1.000
    O568    O    0.09448   0.15062   0.94826   1.000
    N569    N    0.80624   0.90844   0.90765   1.000
    O570    O    0.86008   0.91786   0.94831   1.000
    O571    O    0.74515   0.87081   0.88291   1.000
    O572    O    0.84905   0.94979   0.90407   1.000
    O573    O    0.74543   0.88285   0.87128   1.000
    O574    O    0.86098   0.94972   0.91614   1.000
    O575    O    0.84785   0.90613   0.94821   1.000
    N576    N    0.59084   0.40735   0.80597   1.000
    O577    O    0.61626   0.36981   0.74522   1.000
    O578    O    0.62763   0.38163   0.74514   1.000
    O579    O    0.54977   0.40529   0.84849   1.000
    O580    O    0.55006   0.41742   0.86029   1.000
    O581    O    0.59430   0.44847   0.84864   1.000
    O582    O    0.58210   0.44874   0.86037   1.000
    N583    N    0.09219   0.59039   0.69351   1.000
    O584    O    0.12967   0.61659   0.75373   1.000
    O585    O    0.11798   0.62803   0.75363   1.000
    O586    O    0.05095   0.59284   0.65155   1.000
    O587    O    0.05101   0.58097   0.63947   1.000
    O588    O    0.09516   0.54933   0.65170   1.000
    O589    O    0.08325   0.54939   0.63961   1.000
    N590    N    0.19491   0.59273   0.59013   1.000
    O591    O    0.25375   0.61936   0.62828   1.000
    O592    O    0.25408   0.63168   0.61749   1.000
    O593    O    0.15271   0.59480   0.55001   1.000
    O594    O    0.14072   0.58282   0.55000   1.000
    O595    O    0.14099   0.55064   0.58154   1.000
    O596    O    0.15293   0.55057   0.59360   1.000
    N597    N    0.59250   0.80520   0.58917   1.000
    O598    O    0.61854   0.74494   0.62609   1.000
    O599    O    0.62971   0.74372   0.61424   1.000
    O600    O    0.59491   0.84846   0.54967   1.000
    O601    O    0.58273   0.86031   0.54963   1.000
    O602    O    0.55097   0.84769   0.59308   1.000
    O603    O    0.55086   0.85980   0.58116   1.000
    N604    N    0.90837   0.59002   0.30735   1.000
    O605    O    0.88280   0.62721   0.24722   1.000
    O606    O    0.86935   0.61810   0.24854   1.000
    O607    O    0.94946   0.59389   0.34986   1.000
    O608    O    0.94959   0.58188   0.36186   1.000
    O609    O    0.90599   0.54973   0.34917   1.000
    O610    O    0.91776   0.54960   0.36139   1.000
    N611    N    0.09171   0.69309   0.59216   1.000
    O612    O    0.11752   0.75373   0.62921   1.000
    O613    O    0.12926   0.75353   0.61736   1.000
    O614    O    0.09466   0.65139   0.55107   1.000
    O615    O    0.08270   0.63938   0.55104   1.000
    O616    O    0.05070   0.65068   0.59455   1.000
    O617    O    0.05075   0.63882   0.58246   1.000
    N618    N    0.30539   0.08887   0.59334   1.000
    O619    O    0.24460   0.11508   0.63069   1.000
    O620    O    0.24529   0.12624   0.61827   1.000
    O621    O    0.35966   0.04862   0.58361   1.000
    O622    O    0.34713   0.09181   0.55118   1.000
    O623    O    0.35917   0.07982   0.55125   1.000
    O624    O    0.34752   0.04835   0.59541   1.000
    N625    N    0.40801   0.09210   0.30487   1.000
    O626    O    0.37132   0.11774   0.24378   1.000
    O627    O    0.38255   0.12967   0.24387   1.000
    O628    O    0.44856   0.09455   0.34752   1.000
    O629    O    0.44866   0.08236   0.35934   1.000
    O630    O    0.40508   0.05037   0.34729   1.000
    O631    O    0.41704   0.05050   0.35932   1.000
    N632    N    0.59251   0.59240   0.80590   1.000
    O633    O    0.61850   0.62974   0.74484   1.000
    O634    O    0.63005   0.61814   0.74618   1.000
    O635    O    0.59522   0.55014   0.84844   1.000
    O636    O    0.58302   0.55039   0.86018   1.000
    O637    O    0.55171   0.59429   0.84741   1.000
    O638    O    0.55164   0.58234   0.85948   1.000
    N639    N    0.08815   0.90571   0.19344   1.000
    O640    O    0.12550   0.88118   0.25379   1.000
    O641    O    0.11460   0.86907   0.25493   1.000
    O642    O    0.09142   0.94752   0.15123   1.000
    O643    O    0.04769   0.91577   0.13919   1.000
    O644    O    0.07952   0.94757   0.13913   1.000
    O645    O    0.04744   0.90388   0.15131   1.000
    N646    N    0.19290   0.90620   0.09019   1.000
    O647    O    0.13829   0.91526   0.05006   1.000
    O648    O    0.25352   0.88170   0.12756   1.000
    O649    O    0.13835   0.94772   0.08118   1.000
    O650    O    0.15025   0.94767   0.09329   1.000
    O651    O    0.15038   0.90332   0.05019   1.000
    O652    O    0.25435   0.86936   0.11634   1.000
    N653    N    0.40770   0.09117   0.69538   1.000
    O654    O    0.38213   0.12934   0.75566   1.000
    O655    O    0.37080   0.11761   0.75566   1.000
    O656    O    0.44805   0.09390   0.65321   1.000
    O657    O    0.40506   0.04942   0.65288   1.000
    O658    O    0.41719   0.04975   0.64107   1.000
    O659    O    0.44822   0.08176   0.64141   1.000
    N660    N    0.90721   0.69491   0.40937   1.000
    O661    O    0.86953   0.75558   0.38306   1.000
    O662    O    0.88177   0.75557   0.37161   1.000
    O663    O    0.94883   0.65286   0.40715   1.000
    O664    O    0.94893   0.64085   0.41916   1.000
    O665    O    0.91700   0.64059   0.45042   1.000
    O666    O    0.90496   0.65256   0.45059   1.000
    N667    N    0.40773   0.58941   0.80590   1.000
    O668    O    0.38245   0.62669   0.74597   1.000
    O669    O    0.36940   0.61682   0.74605   1.000
    O670    O    0.45015   0.59278   0.84752   1.000
    O671    O    0.45011   0.58085   0.85960   1.000
    O672    O    0.40554   0.54986   0.84873   1.000
    O673    O    0.41771   0.54969   0.86057   1.000
    N674    N    0.80583   0.59123   0.40806   1.000
    O675    O    0.74433   0.61698   0.37123   1.000
    O676    O    0.74493   0.62825   0.38307   1.000
    O677    O    0.86011   0.58219   0.44972   1.000
    O678    O    0.84805   0.59414   0.44988   1.000
    O679    O    0.84819   0.55046   0.40580   1.000
    O680    O    0.85998   0.55027   0.41800   1.000
    N681    N    0.58990   0.30559   0.09397   1.000
    O682    O    0.62768   0.24501   0.11887   1.000
    O683    O    0.61685   0.24474   0.13115   1.000
    O684    O    0.54973   0.36069   0.08480   1.000
    O685    O    0.54958   0.34876   0.09687   1.000
    O686    O    0.59252   0.34757   0.05237   1.000
    O687    O    0.58069   0.35978   0.05239   1.000
    N688    N    0.09053   0.59197   0.30637   1.000
    O689    O    0.11700   0.62834   0.24597   1.000
    O690    O    0.12812   0.61631   0.24595   1.000
    O691    O    0.04963   0.59505   0.34931   1.000
    O692    O    0.04979   0.58301   0.36130   1.000
    O693    O    0.08174   0.55106   0.36032   1.000
    O694    O    0.09361   0.55137   0.34825   1.000
    N695    N    0.40956   0.80596   0.40872   1.000
    O696    O    0.37186   0.74592   0.38364   1.000
    O697    O    0.38322   0.74580   0.37192   1.000
    O698    O    0.45045   0.86054   0.41814   1.000
    O699    O    0.45076   0.84859   0.40615   1.000
    O700    O    0.40664   0.84785   0.44955   1.000
    O701    O    0.41854   0.85991   0.44953   1.000
    N702    N    0.09173   0.80432   0.90922   1.000
    O703    O    0.05021   0.85839   0.91813   1.000
    O704    O    0.08142   0.85788   0.95043   1.000
    O705    O    0.12995   0.74425   0.88302   1.000
    O706    O    0.09348   0.84592   0.95054   1.000
    O707    O    0.05021   0.84637   0.90620   1.000
    O708    O    0.11790   0.74457   0.87132   1.000
    N709    N    0.59001   0.09168   0.69519   1.000
    O710    O    0.62785   0.11807   0.75467   1.000
    O711    O    0.61512   0.12833   0.75576   1.000
    O712    O    0.59265   0.05095   0.65286   1.000
    O713    O    0.54838   0.09438   0.65312   1.000
    O714    O    0.54850   0.08223   0.64134   1.000
    O715    O    0.58063   0.05100   0.64086   1.000
    N716    N    0.09291   0.69405   0.41072   1.000
    O717    O    0.13004   0.75441   0.38440   1.000
    O718    O    0.11796   0.75386   0.37341   1.000
    O719    O    0.09523   0.65195   0.45122   1.000
    O720    O    0.08327   0.63995   0.45121   1.000
    O721    O    0.05093   0.64037   0.41992   1.000
    O722    O    0.05080   0.65240   0.40793   1.000
    N723    N    0.09051   0.09197   0.80562   1.000
    O724    O    0.12734   0.11755   0.74623   1.000
    O725    O    0.05032   0.08220   0.85916   1.000
    O726    O    0.11648   0.12978   0.74529   1.000
    O727    O    0.09371   0.04936   0.84795   1.000
    O728    O    0.08155   0.04968   0.85971   1.000
    O729    O    0.05060   0.09414   0.84710   1.000
    N730    N    0.19336   0.59255   0.40943   1.000
    O731    O    0.25384   0.62995   0.38384   1.000
    O732    O    0.25353   0.61816   0.37212   1.000
    O733    O    0.13950   0.55117   0.41832   1.000
    O734    O    0.15139   0.55145   0.40626   1.000
    O735    O    0.13985   0.58275   0.45053   1.000
    O736    O    0.15184   0.59472   0.45052   1.000
    N737    N    0.58964   0.30581   0.90974   1.000
    O738    O    0.62827   0.24723   0.88225   1.000
    O739    O    0.61496   0.24512   0.87245   1.000
    O740    O    0.59234   0.34768   0.95114   1.000
    O741    O    0.58050   0.35987   0.95112   1.000
    O742    O    0.54900   0.34821   0.90690   1.000
    O743    O    0.54928   0.36036   0.91868   1.000
    N744    N    0.90829   0.58952   0.69303   1.000
    O745    O    0.88177   0.62709   0.75265   1.000
    O746    O    0.87091   0.61497   0.75359   1.000
    O747    O    0.90607   0.54875   0.65127   1.000
    O748    O    0.91794   0.54882   0.63919   1.000
    O749    O    0.94991   0.59242   0.65129   1.000
    O750    O    0.94993   0.58055   0.63921   1.000
    N751    N    0.59182   0.09098   0.30685   1.000
    O752    O    0.62975   0.11618   0.24683   1.000
    O753    O    0.61827   0.12775   0.24717   1.000
    O754    O    0.58230   0.05078   0.36092   1.000
    O755    O    0.59432   0.05084   0.34900   1.000
    O756    O    0.54962   0.09389   0.34858   1.000
    O757    O    0.54971   0.08172   0.36043   1.000
    N758    N    0.19250   0.09028   0.09148   1.000
    O759    O    0.15133   0.09255   0.04995   1.000
    O760    O    0.13918   0.08075   0.04982   1.000
    O761    O    0.15015   0.04881   0.09387   1.000
    O762    O    0.13826   0.04890   0.08175   1.000
    O763    O    0.25259   0.12865   0.11651   1.000
    O764    O    0.25353   0.11680   0.12778   1.000
    N765    N    0.90899   0.69271   0.59235   1.000
    O766    O    0.87130   0.75304   0.61728   1.000
    O767    O    0.88254   0.75330   0.62918   1.000
    O768    O    0.95026   0.65049   0.59460   1.000
    O769    O    0.95027   0.63862   0.58252   1.000
    O770    O    0.90602   0.65124   0.55121   1.000
    O771    O    0.91806   0.63927   0.55101   1.000
    N772    N    0.59052   0.90865   0.69462   1.000
    O773    O    0.61839   0.86989   0.75335   1.000
    O774    O    0.62811   0.88295   0.75481   1.000
    O775    O    0.54996   0.90575   0.65226   1.000
    O776    O    0.59295   0.95031   0.65257   1.000
    O777    O    0.58095   0.95033   0.64055   1.000
    O778    O    0.54980   0.91784   0.64034   1.000
    N779    N    0.90943   0.40857   0.69324   1.000
    O780    O    0.88344   0.37225   0.75364   1.000
    O781    O    0.87183   0.38382   0.75377   1.000
    O782    O    0.95085   0.40548   0.65051   1.000
    O783    O    0.95076   0.41767   0.63869   1.000
    O784    O    0.90667   0.44911   0.65134   1.000
    O785    O    0.91853   0.44921   0.63926   1.000
    N786    N    0.40930   0.59287   0.19481   1.000
    O787    O    0.38284   0.62965   0.25525   1.000
    O788    O    0.37122   0.61806   0.25525   1.000
    O789    O    0.41869   0.55226   0.14076   1.000
    O790    O    0.40666   0.55259   0.15267   1.000
    O791    O    0.45122   0.59559   0.15260   1.000
    O792    O    0.45092   0.58369   0.14057   1.000
    N793    N    0.69319   0.91082   0.40865   1.000
    O794    O    0.75367   0.88491   0.37113   1.000
    O795    O    0.75293   0.87331   0.38254   1.000
    O796    O    0.65148   0.95169   0.40643   1.000
    O797    O    0.63942   0.95166   0.41833   1.000
    O798    O    0.65158   0.90789   0.45040   1.000
    O799    O    0.63938   0.91973   0.45033   1.000
    N800    N    0.30653   0.40816   0.91139   1.000
    O801    O    0.24683   0.38239   0.87367   1.000
    O802    O    0.24585   0.37033   0.88525   1.000
    O803    O    0.34842   0.40673   0.95227   1.000
    O804    O    0.36037   0.41874   0.95215   1.000
    O805    O    0.34852   0.45019   0.90798   1.000
    O806    O    0.36069   0.45002   0.91982   1.000
    N807    N    0.30481   0.09028   0.40636   1.000
    O808    O    0.24542   0.12855   0.37952   1.000
    O809    O    0.24449   0.11690   0.36815   1.000
    O810    O    0.34700   0.04941   0.40436   1.000
    O811    O    0.35898   0.04950   0.41637   1.000
    O812    O    0.34681   0.09263   0.44858   1.000
    O813    O    0.35885   0.08064   0.44860   1.000
    N814    N    0.30588   0.90932   0.40659   1.000
    O815    O    0.24565   0.87220   0.38165   1.000
    O816    O    0.24446   0.88373   0.36957   1.000
    O817    O    0.34839   0.90595   0.44850   1.000
    O818    O    0.36030   0.91801   0.44843   1.000
    O819    O    0.34769   0.94977   0.40454   1.000
    O820    O    0.35967   0.94990   0.41654   1.000
    N821    N    0.41018   0.80608   0.59289   1.000
    O822    O    0.37172   0.74744   0.61952   1.000
    O823    O    0.38439   0.74500   0.63018   1.000
    O824    O    0.45057   0.86014   0.58301   1.000
    O825    O    0.45067   0.84805   0.59494   1.000
    O826    O    0.40702   0.84800   0.55079   1.000
    O827    O    0.41893   0.86005   0.55075   1.000
    N828    N    0.80567   0.40823   0.59113   1.000
    O829    O    0.74540   0.37060   0.61675   1.000
    O830    O    0.74483   0.38226   0.62817   1.000
    O831    O    0.86024   0.44907   0.58183   1.000
    O832    O    0.84796   0.40538   0.54992   1.000
    O833    O    0.85978   0.41750   0.54989   1.000
    O834    O    0.84837   0.44900   0.59390   1.000
    N835    N    0.40776   0.30811   0.09131   1.000
    O836    O    0.36969   0.24735   0.11617   1.000
    O837    O    0.38190   0.24745   0.12754   1.000
    O838    O    0.41749   0.36237   0.05125   1.000
    O839    O    0.40556   0.35035   0.05138   1.000
    O840    O    0.44940   0.35029   0.09540   1.000
    O841    O    0.44957   0.36223   0.08333   1.000
    N842    N    0.69359   0.09112   0.40801   1.000
    O843    O    0.75503   0.11609   0.37047   1.000
    O844    O    0.75422   0.12754   0.38258   1.000
    O845    O    0.65069   0.09446   0.45008   1.000
    O846    O    0.63903   0.08217   0.44997   1.000
    O847    O    0.65162   0.05101   0.40601   1.000
    O848    O    0.63957   0.05094   0.41791   1.000
    N849    N    0.09329   0.40951   0.69389   1.000
    O850    O    0.13087   0.38378   0.75493   1.000
    O851    O    0.11879   0.37280   0.75459   1.000
    O852    O    0.09571   0.44974   0.65179   1.000
    O853    O    0.08381   0.44983   0.63969   1.000
    O854    O    0.05189   0.40601   0.65097   1.000
    O855    O    0.05184   0.41817   0.63912   1.000
    N856    N    0.59209   0.69503   0.09246   1.000
    O857    O    0.61726   0.75590   0.13031   1.000
    O858    O    0.62856   0.75594   0.11797   1.000
    O859    O    0.58282   0.64036   0.05099   1.000
    O860    O    0.59490   0.65226   0.05072   1.000
    O861    O    0.55177   0.65302   0.09499   1.000
    O862    O    0.55148   0.64108   0.08300   1.000
    N863    N    0.69323   0.40904   0.90899   1.000
    O864    O    0.75402   0.38414   0.87108   1.000
    O865    O    0.75353   0.37268   0.88271   1.000
    O866    O    0.65180   0.44934   0.90666   1.000
    O867    O    0.63959   0.44960   0.91839   1.000
    O868    O    0.65058   0.40561   0.95072   1.000
    O869    O    0.63875   0.41781   0.95069   1.000
    N870    N    0.69502   0.40824   0.09145   1.000
    O871    O    0.75576   0.38323   0.12920   1.000
    O872    O    0.75601   0.37143   0.11745   1.000
    O873    O    0.65157   0.40518   0.05102   1.000
    O874    O    0.63976   0.41740   0.05103   1.000
    O875    O    0.65327   0.44946   0.09404   1.000
    O876    O    0.64118   0.44949   0.08213   1.000
    N877    N    0.09154   0.30489   0.40883   1.000
    O878    O    0.12880   0.24500   0.38159   1.000
    O879    O    0.11445   0.24159   0.37370   1.000
    O880    O    0.05110   0.34772   0.40620   1.000
    O881    O    0.05116   0.35960   0.41825   1.000
    O882    O    0.08340   0.35997   0.44951   1.000
    O883    O    0.09546   0.34801   0.44952   1.000
    N884    N    0.90811   0.30674   0.58991   1.000
    O885    O    0.90576   0.34836   0.54916   1.000
    O886    O    0.91756   0.36051   0.54915   1.000
    O887    O    0.88334   0.24524   0.62539   1.000
    O888    O    0.95031   0.34824   0.59240   1.000
    O889    O    0.95020   0.36041   0.58057   1.000
    O890    O    0.86847   0.24869   0.61857   1.000
    N891    N    0.40992   0.40859   0.80725   1.000
    O892    O    0.40662   0.45035   0.84949   1.000
    O893    O    0.41877   0.45018   0.86134   1.000
    O894    O    0.45014   0.40618   0.84915   1.000
    O895    O    0.45046   0.41831   0.86095   1.000
    O896    O    0.38450   0.37094   0.74663   1.000
    O897    O    0.37294   0.38242   0.74739   1.000
    N898    N    0.69318   0.09278   0.59131   1.000
    O899    O    0.65070   0.05152   0.59461   1.000
    O900    O    0.63869   0.05158   0.58260   1.000
    O901    O    0.65049   0.09525   0.55086   1.000
    O902    O    0.63881   0.08297   0.55076   1.000
    O903    O    0.75372   0.11874   0.62830   1.000
    O904    O    0.75152   0.13221   0.61935   1.000
    N905    N    0.69559   0.59065   0.09160   1.000
    O906    O    0.65368   0.54983   0.09407   1.000
    O907    O    0.64159   0.54984   0.08215   1.000
    O908    O    0.65298   0.59360   0.05027   1.000
    O909    O    0.64092   0.58168   0.05054   1.000
    O910    O    0.75385   0.61843   0.13090   1.000
    O911    O    0.75460   0.62893   0.11844   1.000
loop_
    _geom_bond_atom_site_label_1
    _geom_bond_atom_site_label_2
    _geom_bond_distance
    _geom_bond_site_symmetry_2
    _ccdc_geom_bond_type
    Zr96   O192      1.32390      .   S
    Zr97   O192      1.32390      .   S
    Zr98   O193      1.32190      .   S
    Zr99   O193      1.32190      .   S
    Zr100  O194      1.32198      .   S
    Zr101  O194      1.32198      .   S
    Zr102  O195      1.32372      .   S
    Zr103  O195      1.32372      .   S
    Zr104  O196      1.32261      .   S
    Zr105  O196      1.32261      .   S
    Zr106  O197      1.32360      .   S
    Zr107  O197      1.32360      .   S
    Zr108  O198      1.32285      .   S
    Zr109  O198      1.32285      .   S
    Zr110  O199      1.32373      .   S
    Zr111  O199      1.32373      .   S
    Zr112  O200      1.32253      .   S
    Zr113  O200      1.32253      .   S
    Zr114  O201      1.32376      .   S
    Zr115  O201      1.32376      .   S
    Zr116  O202      1.32287      .   S
    Zr117  O202      1.32287      .   S
    Zr118  O203      1.32422      .   S
    Zr119  O203      1.32422      .   S
    Zr120  O204      1.32251      .   S
    Zr121  O204      1.32251      .   S
    Zr122  O205      1.32438      .   S
    Zr123  O205      1.32438      .   S
    Zr124  O206      1.32306      .   S
    Zr125  O206      1.32306      .   S
    Zr126  O207      1.32369      .   S
    Zr127  O207      1.32369      .   S
    Zr128  O208      1.32345      .   S
    Zr129  O208      1.32345      .   S
    Zr130  O209      1.32480      .   S
    Zr131  O209      1.32480      .   S
    Zr132  O210      1.32255      .   S
    Zr133  O210      1.32255      .   S
    Zr134  O211      1.32347      .   S
    Zr135  O211      1.32347      .   S
    Zr136  O212      1.32334      .   S
    Zr137  O212      1.32334      .   S
    Zr138  O213      1.32370      .   S
    Zr139  O213      1.32370      .   S
    Zr140  O214      1.32350      .   S
    Zr141  O214      1.32350      .   S
    Zr142  O215      1.32361      .   S
    Zr143  O215      1.32361      .   S
    Zr144  O216      1.32416      .   S
    Zr145  O216      1.32416      .   S
    Zr146  O217      1.32323      .   S
    Zr147  O217      1.32323      .   S
    Zr148  O218      1.32316      .   S
    Zr149  O218      1.32316      .   S
    Zr150  O219      1.32370      .   S
    Zr151  O219      1.32370      .   S
    Zr152  O220      1.32465      .   S
    Zr153  O220      1.32465      .   S
    Zr154  O221      1.32317      .   S
    Zr155  O221      1.32317      .   S
    Zr156  O222      1.32347      .   S
    Zr157  O222      1.32347      .   S
    Zr158  O223      1.32459      .   S
    Zr159  O223      1.32459      .   S
    Zr160  O224      1.32420      .   S
    Zr161  O224      1.32420      .   S
    Zr162  O225      1.32368      .   S
    Zr163  O225      1.32368      .   S
    Zr164  O226      1.32405      .   S
    Zr165  O226      1.32405      .   S
    Zr166  O227      1.32560      .   S
    Zr167  O227      1.32560      .   S
    Zr168  O228      1.32304      .   S
    Zr169  O228      1.32304      .   S
    Zr170  O229      1.32417      .   S
    Zr171  O229      1.32417      .   S
    Zr172  O230      1.32421      .   S
    Zr173  O230      1.32421      .   S
    Zr174  O231      1.32331      .   S
    Zr175  O231      1.32331      .   S
    Zr176  O232      1.32250      .   S
    Zr177  O232      1.32250      .   S
    Zr178  O233      1.32341      .   S
    Zr179  O233      1.32341      .   S
    Zr180  O234      1.32272      .   S
    Zr181  O234      1.32272      .   S
    Zr182  O235      1.32461      .   S
    Zr183  O235      1.32461      .   S
    Zr184  O236      1.32429  1_554   S
    Zr185  O236      1.32429      .   S
    Zr186  O237      1.32488      .   S
    Zr187  O237      1.32488  1_556   S
    Zr188  O238      1.32296      .   S
    Zr189  O238      1.32296      .   S
    Zr190  O239      1.32435      .   S
    Zr191  O239      1.32435      .   S
    N240   O241      5.37463      .   S
    Zr1    O241      6.24930      .   S
    N240   O242      5.38997      .   S
    Zr0    O242      6.29473      .   S
    N240   O243      4.18077      .   S
    Zr177  O243      4.96381      .   S
    N240   O244      4.87849      .   S
    Zr176  O244      5.66527      .   S
    N240   O245      4.23164      .   S
    Zr189  O245      5.01060      .   S
    N240   O246      4.91050      .   S
    Zr188  O246      5.69040      .   S
    N247   O248      4.19476      .   S
    Zr107  O248      4.97688  1_545   S
    N247   O249      5.42383      .   S
    Zr58   O249      6.31552      .   S
    N247   O250      4.24672      .   S
    Zr119  O250      5.02639      .   S
    N247   O251      5.40187      .   S
    Zr57   O251      6.29227      .   S
    N247   O252      4.93125      .   S
    Zr118  O252      5.71749      .   S
    N247   O253      4.89547      .   S
    Zr106  O253      5.68361  1_545   S
    N254   O255      5.43148      .   S
    Zr5    O255      6.33824      .   S
    N254   O256      5.39212      .   S
    Zr4    O256      6.27908      .   S
    N254   O257      4.15282      .   S
    Zr185  O257      4.92321      .   S
    N254   O258      4.86841      .   S
    Zr184  O258      5.64521  1_554   S
    N254   O259      4.26591      .   S
    Zr171  O259      5.05613      .   S
    N254   O260      4.93922      .   S
    Zr170  O260      5.73648      .   S
    N261   O262      5.44496      .   S
    Zr77   O262      6.35320      .   S
    N261   O263      4.88254      .   S
    Zr108  O263      5.66246      .   S
    N261   O264      4.95057      .   S
    Zr104  O264      5.75054  1_565   S
    N261   O265      5.40615      .   S
    Zr76   O265      6.29414      .   S
    N261   O266      4.17487      .   S
    Zr109  O266      4.94980      .   S
    N261   O267      4.27700      .   S
    Zr105  O267      5.06796  1_565   S
    N268   O269      5.40245      .   S
    Zr7    O269      6.29187      .   S
    N268   O270      4.26841      .   S
    Zr117  O270      5.05711  1_455   S
    N268   O271      4.17452      .   S
    Zr113  O271      4.95176      .   S
    N268   O272      5.43366      .   S
    Zr8    O272      6.33629      .   S
    N268   O273      4.88194      .   S
    Zr112  O273      5.66353      .   S
    N268   O274      4.93824      .   S
    Zr116  O274      5.72881  1_455   S
    N275   O276      5.39018      .   S
    Zr80   O276      6.26425      .   S
    N275   O277      4.26278      .   S
    Zr115  O277      5.05084      .   S
    N275   O278      4.18737      .   S
    Zr119  O278      4.96916      .   S
    N275   O279      4.89033      .   S
    Zr118  O279      5.67795      .   S
    N275   O280      4.94116      .   S
    Zr114  O280      5.73688      .   S
    N275   O281      5.44434      .   S
    Zr78   O281      6.35188      .   S
    N282   O283      5.37065      .   S
    Zr20   O283      6.24426      .   S
    N282   O284      5.42505      .   S
    Zr18   O284      6.33196      .   S
    N282   O285      4.14011      .   S
    Zr173  O285      4.90838      .   S
    N282   O286      4.85526      .   S
    Zr172  O286      5.62635      .   S
    N282   O287      4.25055      .   S
    Zr185  O287      5.03599      .   S
    N282   O288      4.93142      .   S
    Zr184  O288      5.72568  1_554   S
    N289   O290      4.90516      .   S
    Zr116  O290      5.69808  1_455   S
    N289   O291      4.23146      .   S
    Zr107  O291      5.01114      .   S
    N289   O292      4.92100      .   S
    Zr106  O292      5.70744      .   S
    N289   O293      4.21523      .   S
    Zr117  O293      5.00370  1_455   S
    N289   O294      5.42723      .   S
    Zr46   O294      6.32613      .   S
    N289   O295      5.39699      .   S
    Zr45   O295      6.28533      .   S
    N296   O297      5.40585      .   S
    Zr15   O297      6.29478      .   S
    N296   O298      5.42909      .   S
    Zr17   O298      6.32092      .   S
    N296   O299      4.17645      .   S
    Zr113  O299      4.95465      .   S
    N296   O300      4.94159      .   S
    Zr106  O300      5.73587      .   S
    N296   O301      4.26122      .   S
    Zr107  O301      5.04930      .   S
    N296   O302      4.88746      .   S
    Zr112  O302      5.67243      .   S
    N303   O304      5.36269      .   S
    Zr89   O304      6.23528      .   S
    N303   O305      5.41512      .   S
    Zr87   O305      6.31728      .   S
    N303   O306      4.17019      .   S
    Zr171  O306      4.94801      .   S
    N303   O307      4.87190      .   S
    Zr170  O307      5.65079      .   S
    N303   O308      4.24165      .   S
    Zr187  O308      5.02068      .   S
    N303   O309      4.92892      .   S
    Zr186  O309      5.71715  1_554   S
    N310   O311      5.42746      .   S
    Zr51   O311      6.34692      .   S
    N310   O312      5.34190      .   S
    Zr53   O312      6.20404      .   S
    N310   O313      4.87948      .   S
    Zr178  O313      5.66107      .   S
    N310   O314      4.18654      .   S
    Zr179  O314      4.96841      .   S
    N310   O315      4.26195      .   S
    Zr185  O315      5.04669  1_556   S
    N310   O316      4.93787      .   S
    Zr184  O316      5.73150      .   S
    N317   O318      4.87697      .   S
    Zr110  O318      5.66013      .   S
    N317   O319      5.39994      .   S
    Zr68   O319      6.29124      .   S
    N317   O320      4.17929      .   S
    Zr111  O320      4.96166      .   S
    N317   O321      4.94067      .   S
    Zr102  O321      5.73726  1_655   S
    N317   O322      5.38337      .   S
    Zr66   O322      6.27703      .   S
    N317   O323      4.26927      .   S
    Zr103  O323      5.05840  1_655   S
    N324   O325      5.39324      .   S
    Zr33   O325      6.28517      .   S
    N324   O326      5.40797      .   S
    Zr35   O326      6.29588      .   S
    N324   O327      4.19816      .   S
    Zr157  O327      4.97977      .   S
    N324   O328      4.89364      .   S
    Zr156  O328      5.67891      .   S
    N324   O329      4.18760      .   S
    Zr165  O329      4.95645      .   S
    N324   O330      4.88979      .   S
    Zr164  O330      5.66301      .   S
    N331   O332      4.87372      .   S
    Zr100  O332      5.65231      .   S
    N331   O333      4.16586      .   S
    Zr101  O333      4.94281      .   S
    N331   O334      5.38822      .   S
    Zr56   O334      6.25807      .   S
    N331   O335      4.96797      .   S
    Zr112  O335      5.76941  1_556   S
    N331   O336      5.45265      .   S
    Zr54   O336      6.36448      .   S
    N331   O337      4.30455      .   S
    Zr113  O337      5.09944  1_556   S
    N338   O339      5.38479      .   S
    Zr68   O339      6.26850      .   S
    N338   O340      5.42537      .   S
    Zr67   O340      6.32967      .   S
    N338   O341      4.28168      .   S
    Zr185  O341      5.07062  1_556   S
    N338   O342      4.95122      .   S
    Zr184  O342      5.74610      .   S
    N338   O343      4.13780      .   S
    Zr189  O343      4.90813      .   S
    N338   O344      4.85334      .   S
    Zr188  O344      5.62399      .   S
    N345   O346      5.44063      .   S
    Zr33   O346      6.34741      .   S
    N345   O347      5.38904      .   S
    Zr34   O347      6.26490      .   S
    N345   O348      4.93812      .   S
    Zr118  O348      5.73334  1_655   S
    N345   O349      4.25954      .   S
    Zr119  O349      5.04898  1_655   S
    N345   O350      4.89397      .   S
    Zr104  O350      5.68344      .   S
    N345   O351      4.18471      .   S
    Zr105  O351      4.96555      .   S
    N352   O353      5.40185      .   S
    Zr2    O353      6.29350      .   S
    N352   O354      5.38207      .   S
    Zr0    O354      6.27516      .   S
    N352   O355      4.94789      .   S
    Zr126  O355      5.74640      .   S
    N352   O356      4.27271      .   S
    Zr127  O356      5.06345      .   S
    N352   O357      4.88451      .   S
    Zr134  O357      5.67193      .   S
    N352   O358      4.18575      .   S
    Zr135  O358      4.97083      .   S
    N359   O360      5.42800      .   S
    Zr30   O360      6.33416      .   S
    N359   O361      5.41141      .   S
    Zr31   O361      6.29022      .   S
    N359   O362      4.21026      .   S
    Zr121  O362      4.99740      .   S
    N359   O363      4.90482      .   S
    Zr120  O363      5.69889      .   S
    N359   O364      4.23449      .   S
    Zr127  O364      5.01210      .   S
    N359   O365      4.91931      .   S
    Zr126  O365      5.70137      .   S
    N366   O367      5.39166      .   S
    Zr84   O367      6.28346      .   S
    N366   O368      5.37173      .   S
    Zr85   O368      6.26215      .   S
    N366   O369      4.93549      .   S
    Zr190  O369      5.72981      .   S
    N366   O370      4.25423      .   S
    Zr191  O370      5.03979      .   S
    N366   O371      4.18340      .   S
    Zr177  O371      4.96634      .   S
    N366   O372      4.87838      .   S
    Zr176  O372      5.66047      .   S
    N373   O374      5.44401      .   S
    Zr83   O374      6.34854      .   S
    N373   O375      5.39125      .   S
    Zr81   O375      6.26942      .   S
    N373   O376      4.17407      .   S
    Zr133  O376      4.95183      .   S
    N373   O377      4.88210      .   S
    Zr132  O377      5.66266      .   S
    N373   O378      4.95347      .   S
    Zr120  O378      5.74746  1_455   S
    N373   O379      4.27309      .   S
    Zr121  O379      5.05830  1_455   S
    N380   O381      5.39331      .   S
    Zr4    O381      6.28256      .   S
    N380   O382      5.41870      .   S
    Zr3    O382      6.31755      .   S
    N380   O383      4.18213      .   S
    Zr165  O383      4.96715      .   S
    N380   O384      4.88454      .   S
    Zr164  O384      5.67453      .   S
    N380   O385      4.25516      .   S
    Zr153  O385      5.03776      .   S
    N380   O386      4.93542      .   S
    Zr152  O386      5.72618      .   S
    N387   O388      5.37830      .   S
    Zr2    O388      6.26059      .   S
    N387   O389      5.42047      .   S
    Zr1    O389      6.32415      .   S
    N387   O390      4.25546      .   S
    Zr161  O390      5.03578      .   S
    N387   O391      4.93564      .   S
    Zr160  O391      5.72361      .   S
    N387   O392      4.14963      .   S
    Zr147  O392      4.92248      .   S
    N387   O393      4.85908      .   S
    Zr146  O393      5.63310      .   S
    N394   O395      4.23418      .   S
    Zr99   O395      5.02867  1_545   S
    N394   O396      5.39863      .   S
    Zr9    O396      6.29191      .   S
    N394   O397      4.90956      .   S
    Zr102  O397      5.68950      .   S
    N394   O398      5.38378      .   S
    Zr10   O398      6.27856      .   S
    N394   O399      4.91589      .   S
    Zr98   O399      5.71181  1_545   S
    N394   O400      4.20718      .   S
    Zr103  O400      4.97881      .   S
    N401   O402      5.35421      .   S
    Zr86   O402      6.23365      .   S
    N401   O403      5.40098      .   S
    Zr84   O403      6.30236      .   S
    N401   O404      4.88771      .   S
    Zr146  O404      5.67363      .   S
    N401   O405      4.18694      .   S
    Zr147  O405      4.96726      .   S
    N401   O406      4.22175      .   S
    Zr163  O406      4.99435      .   S
    N401   O407      4.91421      .   S
    Zr162  O407      5.69358      .   S
    N408   O409      5.40260      .   S
    Zr61   O409      6.31472      .   S
    N408   O410      5.34641      .   S
    Zr62   O410      6.22126      .   S
    N408   O411      4.20502      .   S
    Zr137  O411      4.99275      .   S
    N408   O412      4.89159      .   S
    Zr136  O412      5.68422      .   S
    N408   O413      4.18012      .   S
    Zr141  O413      4.96079      .   S
    N408   O414      4.87597      .   S
    Zr140  O414      5.66002      .   S
    N415   O416      5.40062      .   S
    Zr85   O416      6.28770      .   S
    N415   O417      5.44128      .   S
    Zr86   O417      6.34981      .   S
    N415   O418      4.94447      .   S
    Zr124  O418      5.74156      .   S
    N415   O419      4.27411      .   S
    Zr125  O419      5.06630      .   S
    N415   O420      4.88537      .   S
    Zr132  O420      5.66996      .   S
    N415   O421      4.18840      .   S
    Zr133  O421      4.97176      .   S
    N422   O423      5.38224      .   S
    Zr21   O423      6.26154      .   S
    N422   O424      4.88291      .   S
    Zr100  O424      5.66362  1_655   S
    N422   O425      4.17940      .   S
    Zr101  O425      4.95771  1_655   S
    N422   O426      4.25010      .   S
    Zr97   O426      5.02915  1_565   S
    N422   O427      4.93518      .   S
    Zr96   O427      5.72178  1_565   S
    N422   O428      5.42680      .   S
    Zr22   O428      6.32606      .   S
    N429   O430      4.87755      .   S
    Zr102  O430      5.66051      .   S
    N429   O431      4.16918      .   S
    Zr103  O431      4.94873      .   S
    N429   O432      4.95751      .   S
    Zr114  O432      5.75659  1_556   S
    N429   O433      4.28796      .   S
    Zr115  O433      5.08080  1_556   S
    N429   O434      5.43586      .   S
    Zr43   O434      6.34292      .   S
    N429   O435      5.38997      .   S
    Zr44   O435      6.27170      .   S
    N436   O437      5.42371      .   S
    Zr3    O437      6.33251      .   S
    N436   O438      5.36867      .   S
    Zr5    O438      6.24414      .   S
    N436   O439      4.12793      .   S
    Zr105  O439      4.89165      .   S
    N436   O440      4.84813      .   S
    Zr104  O440      5.61341      .   S
    N436   O441      4.92381      .   S
    Zr110  O441      5.70897  1_554   S
    N436   O442      4.24719      .   S
    Zr111  O442      5.03028  1_554   S
    N443   O444      5.37109      .   S
    Zr50   O444      6.25874      .   S
    N443   O445      5.39595      .   S
    Zr48   O445      6.29321      .   S
    N443   O446      4.94748      .   S
    Zr160  O446      5.74409      .   S
    N443   O447      4.26369      .   S
    Zr161  O447      5.04715      .   S
    N443   O448      4.15492      .   S
    Zr155  O448      4.93544      .   S
    N443   O449      4.86404      .   S
    Zr154  O449      5.64702      .   S
    N450   O451      5.43561      .   S
    Zr31   O451      6.33851      .   S
    N450   O452      4.88907      .   S
    Zr100  O452      5.67173  1_655   S
    N450   O453      5.40288      .   S
    Zr32   O453      6.29239      .   S
    N450   O454      4.94247      .   S
    Zr108  O454      5.73042  1_556   S
    N450   O455      4.18427      .   S
    Zr101  O455      4.96409  1_655   S
    N450   O456      4.26058      .   S
    Zr109  O456      5.04329  1_556   S
    N457   O458      5.40814      .   S
    Zr71   O458      6.30997      .   S
    N457   O459      5.35965      .   S
    Zr69   O459      6.24012      .   S
    N457   O460      4.22772      .   S
    Zr129  O460      5.00331      .   S
    N457   O461      4.92165      .   S
    Zr128  O461      5.70557      .   S
    N457   O462      4.20392      .   S
    Zr135  O462      4.99119      .   S
    N457   O463      4.89625      .   S
    Zr134  O463      5.68529      .   S
    N464   O465      5.42000      .   S
    Zr59   O465      6.32469      .   S
    N464   O466      5.37309      .   S
    Zr58   O466      6.25311      .   S
    N464   O467      4.25561      .   S
    Zr167  O467      5.03704  1_545   S
    N464   O468      4.93474      .   S
    Zr166  O468      5.72534  1_545   S
    N464   O469      4.14686      .   S
    Zr159  O469      4.91895      .   S
    N464   O470      4.85861      .   S
    Zr158  O470      5.63468      .   S
    N471   O472      5.39183      .   S
    Zr77   O472      6.27231      .   S
    N471   O473      5.43450      .   S
    Zr75   O473      6.33948      .   S
    N471   O474      4.16166      .   S
    Zr169  O474      4.93523      .   S
    N471   O475      4.87380      .   S
    Zr168  O475      5.64967      .   S
    N471   O476      4.25514      .   S
    Zr181  O476      5.03754  1_554   S
    N471   O477      4.93777      .   S
    Zr180  O477      5.72619  1_554   S
    N478   O479      4.94556      .   S
    Zr112  O479      5.73172  1_556   S
    N478   O480      4.16490      .   S
    Zr99   O480      4.94205      .   S
    N478   O481      5.41766      .   S
    Zr65   O481      6.31994      .   S
    N478   O482      5.41873      .   S
    Zr64   O482      6.30981      .   S
    N478   O483      4.87435      .   S
    Zr98   O483      5.65370      .   S
    N478   O484      4.26749      .   S
    Zr113  O484      5.04855  1_556   S
    N485   O486      5.42427      .   S
    Zr27   O486      6.32429      .   S
    N485   O487      5.38218      .   S
    Zr28   O487      6.25960      .   S
    N485   O488      4.21115      .   S
    Zr145  O488      4.98543      .   S
    N485   O489      4.90697      .   S
    Zr144  O489      5.68883      .   S
    N485   O490      4.19537      .   S
    Zr151  O490      4.97844  1_545   S
    N485   O491      4.89069      .   S
    Zr150  O491      5.67701  1_545   S
    N492   O493      5.39348      .   S
    Zr79   O493      6.27877      .   S
    N492   O494      5.40779      .   S
    Zr80   O494      6.31291      .   S
    N492   O495      4.21293      .   S
    Zr187  O495      4.98561      .   S
    N492   O496      4.91584      .   S
    Zr186  O496      5.69943  1_554   S
    N492   O497      4.21736      .   S
    Zr175  O497      5.00172      .   S
    N492   O498      4.90836      .   S
    Zr174  O498      5.69740      .   S
    N499   O500      5.38922      .   S
    Zr55   O500      6.27708      .   S
    N499   O501      5.37392      .   S
    Zr54   O501      6.26772      .   S
    N499   O502      4.21799      .   S
    Zr121  O502      4.99029  1_455   S
    N499   O503      4.91248      .   S
    Zr120  O503      5.68942  1_455   S
    N499   O504      4.89027      .   S
    Zr124  O504      5.67646      .   S
    N499   O505      4.19521      .   S
    Zr125  O505      4.97923      .   S
    N506   O507      5.42716      .   S
    Zr49   O507      6.32898      .   S
    N506   O508      5.39644      .   S
    Zr50   O508      6.28547      .   S
    N506   O509      4.23446      .   S
    Zr135  O509      5.01317      .   S
    N506   O510      4.92024      .   S
    Zr134  O510      5.70560      .   S
    N506   O511      4.18934      .   S
    Zr143  O511      4.97188      .   S
    N506   O512      4.88747      .   S
    Zr142  O512      5.67393      .   S
    N513   O514      5.41031      .   S
    Zr14   O514      6.31332      .   S
    N513   O515      5.40577      .   S
    Zr13   O515      6.29273      .   S
    N513   O516      4.24182      .   S
    Zr159  O516      5.02148      .   S
    N513   O517      4.92563      .   S
    Zr158  O517      5.70989      .   S
    N513   O518      4.19084      .   S
    Zr145  O518      4.97509      .   S
    N513   O519      4.89268      .   S
    Zr144  O519      5.68385      .   S
    N520   O521      5.38076      .   S
    Zr12   O521      6.26702      .   S
    N520   O522      5.40946      .   S
    Zr13   O522      6.30262      .   S
    N520   O523      4.14570      .   S
    Zr179  O523      4.91775      .   S
    N520   O524      4.85809      .   S
    Zr178  O524      5.63076      .   S
    N520   O525      4.25204      .   S
    Zr191  O525      5.03320      .   S
    N520   O526      4.93012      .   S
    Zr190  O526      5.71424      .   S
    N527   O528      5.42084      .   S
    Zr26   O528      6.32142      .   S
    N527   O529      5.38568      .   S
    Zr25   O529      6.27020      .   S
    N527   O530      4.23514      .   S
    Zr155  O530      5.01339      .   S
    N527   O531      4.91533      .   S
    Zr154  O531      5.69529      .   S
    N527   O532      4.86706      .   S
    Zr162  O532      5.64187      .   S
    N527   O533      4.15076      .   S
    Zr163  O533      4.91851      .   S
    N534   O535      5.35467      .   S
    Zr51   O535      6.23219      .   S
    N534   O536      5.41283      .   S
    Zr52   O536      6.32124      .   S
    N534   O537      4.16159      .   S
    Zr149  O537      4.93994      .   S
    N534   O538      4.86976      .   S
    Zr148  O538      5.65079      .   S
    N534   O539      4.27527      .   S
    Zr145  O539      5.06545      .   S
    N534   O540      4.94841      .   S
    Zr144  O540      5.74626      .   S
    N541   O542      4.89545      .   S
    Zr100  O542      5.68206      .   S
    N541   O543      4.27723      .   S
    Zr99   O543      5.06782      .   S
    N541   O544      5.45621      .   S
    Zr81   O544      6.37342      .   S
    N541   O545      5.37607      .   S
    Zr82   O545      6.24030      .   S
    N541   O546      4.19467      .   S
    Zr101  O546      4.97845      .   S
    N541   O547      4.95144      .   S
    Zr98   O547      5.74589      .   S
    N548   O549      5.44353      .   S
    Zr32   O549      6.34120      .   S
    N548   O550      5.41823      .   S
    Zr30   O550      6.30954      .   S
    N548   O551      4.29227      .   S
    Zr189  O551      5.08705      .   S
    N548   O552      4.96295      .   S
    Zr188  O552      5.76685      .   S
    N548   O553      4.18420      .   S
    Zr181  O553      4.96415      .   S
    N548   O554      4.89210      .   S
    Zr180  O554      5.67709      .   S
    N555   O556      4.92754      .   S
    Zr114  O556      5.70915  1_556   S
    N555   O557      4.19200      .   S
    Zr99   O557      4.97194  1_545   S
    N555   O558      4.23682      .   S
    Zr115  O558      5.00978  1_556   S
    N555   O559      5.40727      .   S
    Zr29   O559      6.29846      .   S
    N555   O560      5.42125      .   S
    Zr27   O560      6.31284      .   S
    N555   O561      4.89067      .   S
    Zr98   O561      5.67368  1_545   S
    N562   O563      5.42436      .   S
    Zr90   O563      6.34155      .   S
    N562   O564      4.17172      .   S
    Zr117  O564      4.95218      .   S
    N562   O565      4.94852      .   S
    Zr108  O565      5.74592      .   S
    N562   O566      5.34614      .   S
    Zr92   O566      6.21162      .   S
    N562   O567      4.87992      .   S
    Zr116  O567      5.66496      .   S
    N562   O568      4.27578      .   S
    Zr109  O568      5.06716      .   S
    N569   O570      4.87153      .   S
    Zr114  O570      5.65126      .   S
    N569   O571      5.43241      .   S
    Zr89   O571      6.33928      .   S
    N569   O572      4.26893      .   S
    Zr107  O572      5.05299  1_545   S
    N569   O573      5.39072      .   S
    Zr88   O573      6.27737      .   S
    N569   O574      4.94592      .   S
    Zr106  O574      5.73704  1_545   S
    N569   O575      4.15659      .   S
    Zr115  O575      4.93032      .   S
    N576   O577      5.43245      .   S
    Zr25   O577      6.32313      .   S
    N576   O578      5.41783      .   S
    Zr24   O578      6.31267      .   S
    N576   O579      4.23707      .   S
    Zr169  O579      5.03171      .   S
    N576   O580      4.92021      .   S
    Zr168  O580      5.71653      .   S
    N576   O581      4.25356      .   S
    Zr175  O581      5.03927      .   S
    N576   O582      4.93876      .   S
    Zr174  O582      5.73018      .   S
    N583   O584      5.41373      .   S
    Zr18   O584      6.30411      .   S
    N583   O585      5.40658      .   S
    Zr19   O585      6.30163      .   S
    N583   O586      4.20874      .   S
    Zr131  O586      4.98243      .   S
    N583   O587      4.90713      .   S
    Zr130  O587      5.69016      .   S
    N583   O588      4.20434      .   S
    Zr143  O588      4.99061      .   S
    N583   O589      4.89521      .   S
    Zr142  O589      5.68436      .   S
    N590   O591      5.36805      .   S
    Zr36   O591      6.23546      .   S
    N590   O592      5.43556      .   S
    Zr38   O592      6.34267      .   S
    N590   O593      4.16461      .   S
    Zr139  O593      4.94033      .   S
    N590   O594      4.87412      .   S
    Zr138  O594      5.65539      .   S
    N590   O595      4.93534      .   S
    Zr142  O595      5.72847      .   S
    N590   O596      4.26601      .   S
    Zr143  O596      5.05778      .   S
    N597   O598      5.37521      .   S
    Zr60   O598      6.24891      .   S
    N597   O599      5.43154      .   S
    Zr62   O599      6.33341      .   S
    N597   O600      4.18879      .   S
    Zr159  O600      4.97144      .   S
    N597   O601      4.89264      .   S
    Zr158  O601      5.68348      .   S
    N597   O602      4.25380      .   S
    Zr153  O602      5.03775      .   S
    N597   O603      4.93535      .   S
    Zr152  O603      5.72654      .   S
    N604   O605      5.37001      .   S
    Zr43   O605      6.24300      .   S
    N604   O606      5.42494      .   S
    Zr42   O606      6.32850      .   S
    N604   O607      4.23622      .   S
    Zr123  O607      5.01855      .   S
    N604   O608      4.91853      .   S
    Zr122  O608      5.70450      .   S
    N604   O609      4.15283      .   S
    Zr125  O609      4.92257      .   S
    N604   O610      4.86709      .   S
    Zr124  O610      5.64248      .   S
    N611   O612      5.41537      .   S
    Zr34   O612      6.32036      .   S
    N611   O613      5.40508      .   S
    Zr35   O613      6.29008      .   S
    N611   O614      4.19980      .   S
    Zr139  O614      4.98673      .   S
    N611   O615      4.88869      .   S
    Zr138  O615      5.67563      .   S
    N611   O616      4.22623      .   S
    Zr131  O616      5.00644      .   S
    N611   O617      4.91705      .   S
    Zr130  O617      5.70613      .   S
    N618   O619      5.44127      .   S
    Zr70   O619      6.35777      .   S
    N618   O620      5.36718      .   S
    Zr71   O620      6.23727      .   S
    N618   O621      4.87891      .   S
    Zr164  O621      5.66481  1_565   S
    N618   O622      4.25511      .   S
    Zr161  O622      5.03618      .   S
    N618   O623      4.93421      .   S
    Zr160  O623      5.72196      .   S
    N618   O624      4.17708      .   S
    Zr165  O624      4.95801  1_565   S
    N625   O626      5.40962      .   S
    Zr39   O626      6.30222      .   S
    N625   O627      5.43004      .   S
    Zr40   O627      6.32280      .   S
    N625   O628      4.21148      .   S
    Zr147  O628      5.00057      .   S
    N625   O629      4.90687      .   S
    Zr146  O629      5.70119      .   S
    N625   O630      4.25767      .   S
    Zr149  O630      5.04219  1_565   S
    N625   O631      4.93750      .   S
    Zr148  O631      5.72642  1_565   S
    N632   O633      5.44871      .   S
    Zr60   O633      6.36029      .   S
    N632   O634      5.37684      .   S
    Zr61   O634      6.24181      .   S
    N632   O635      4.28798      .   S
    Zr175  O635      5.08026      .   S
    N632   O636      4.95369      .   S
    Zr174  O636      5.75076      .   S
    N632   O637      4.17206      .   S
    Zr171  O637      4.95011      .   S
    N632   O638      4.88081      .   S
    Zr170  O638      5.66666      .   S
    N639   O640      5.36362      .   S
    Zr94   O640      6.22452      .   S
    N639   O641      5.45016      .   S
    Zr93   O641      6.36886      .   S
    N639   O642      4.25193      .   S
    Zr97   O642      5.03387      .   S
    N639   O643      4.88892      .   S
    Zr102  O643      5.67313  1_655   S
    N639   O644      4.93711      .   S
    Zr96   O644      5.72849      .   S
    N639   O645      4.19033      .   S
    Zr103  O645      4.97144  1_655   S
    N646   O647      4.88450      .   S
    Zr110  O647      5.67011      .   S
    N646   O648      5.37689      .   S
    Zr52   O648      6.25054      .   S
    N646   O649      4.93652      .   S
    Zr96   O649      5.73136      .   S
    N646   O650      4.25573      .   S
    Zr97   O650      5.04358      .   S
    N646   O651      4.17884      .   S
    Zr111  O651      4.95909      .   S
    N646   O652      5.44433      .   S
    Zr53   O652      6.36042      .   S
    N653   O654      5.43209      .   S
    Zr75   O654      6.33070      .   S
    N653   O655      5.40816      .   S
    Zr76   O655      6.29776      .   S
    N653   O656      4.18566      .   S
    Zr155  O656      4.96923      .   S
    N653   O657      4.27292      .   S
    Zr165  O657      5.06319  1_565   S
    N653   O658      4.94162      .   S
    Zr164  O658      5.73547  1_565   S
    N653   O659      4.88232      .   S
    Zr154  O659      5.66650      .   S
    N660   O661      5.43217      .   S
    Zr11   O661      6.33076      .   S
    N660   O662      5.41341      .   S
    Zr10   O662      6.30975      .   S
    N660   O663      4.22854      .   S
    Zr123  O663      5.00870      .   S
    N660   O664      4.92471      .   S
    Zr122  O664      5.71775      .   S
    N660   O665      4.91164      .   S
    Zr136  O665      5.70853      .   S
    N660   O666      4.22575      .   S
    Zr137  O666      5.01741      .   S
    N667   O668      5.35387      .   S
    Zr37   O668      6.21123      .   S
    N667   O669      5.44064      .   S
    Zr36   O669      6.35572      .   S
    N667   O670      4.25562      .   S
    Zr171  O670      5.04397      .   S
    N667   O671      4.92690      .   S
    Zr170  O671      5.71609      .   S
    N667   O672      4.16885      .   S
    Zr173  O672      4.94599      .   S
    N667   O673      4.87966      .   S
    Zr172  O673      5.66497      .   S
    N674   O675      5.43818      .   S
    Zr12   O675      6.34282      .   S
    N674   O676      5.39104      .   S
    Zr14   O676      6.26977      .   S
    N674   O677      4.93066      .   S
    Zr136  O677      5.71464      .   S
    N674   O678      4.25368      .   S
    Zr137  O678      5.03725      .   S
    N674   O679      4.20297      .   S
    Zr125  O679      4.98882      .   S
    N674   O680      4.89908      .   S
    Zr124  O680      5.68698      .   S
    N681   O682      5.39665      .   S
    Zr65   O682      6.27701      .   S
    N681   O683      5.44105      .   S
    Zr63   O683      6.34573      .   S
    N681   O684      4.91158      .   S
    Zr176  O684      5.70759      .   S
    N681   O685      4.22445      .   S
    Zr177  O685      5.01639      .   S
    N681   O686      4.22701      .   S
    Zr183  O686      5.00612      .   S
    N681   O687      4.92093      .   S
    Zr182  O687      5.70874      .   S
    N688   O689      5.38855      .   S
    Zr66   O689      6.29050      .   S
    N688   O690      5.38497      .   S
    Zr67   O690      6.26724      .   S
    N688   O691      4.25504      .   S
    Zr123  O691      5.03772  1_655   S
    N688   O692      4.94134      .   S
    Zr122  O692      5.73682  1_655   S
    N688   O693      4.88153      .   S
    Zr126  O693      5.67169      .   S
    N688   O694      4.17276      .   S
    Zr127  O694      4.95488      .   S
    N695   O696      5.38477      .   S
    Zr74   O696      6.26462      .   S
    N695   O697      5.39186      .   S
    Zr72   O697      6.29539      .   S
    N695   O698      4.92925      .   S
    Zr144  O698      5.71616      .   S
    N695   O699      4.24824      .   S
    Zr145  O699      5.02889      .   S
    N695   O700      4.19710      .   S
    Zr157  O700      4.98604      .   S
    N695   O701      4.88914      .   S
    Zr156  O701      5.68053      .   S
    N702   O703      4.91322      .   S
    Zr118  O703      5.69831  1_655   S
    N702   O704      4.89714      .   S
    Zr110  O704      5.68704  1_554   S
    N702   O705      5.42671      .   S
    Zr20   O705      6.32714      .   S
    N702   O706      4.20380      .   S
    Zr111  O706      4.98889  1_554   S
    N702   O707      4.22557      .   S
    Zr119  O707      5.00451  1_655   S
    N702   O708      5.40105      .   S
    Zr19   O708      6.29352      .   S
    N709   O710      5.38925      .   S
    Zr15   O710      6.29091      .   S
    N709   O711      5.38149      .   S
    Zr16   O711      6.25807      .   S
    N709   O712      4.21373      .   S
    Zr167  O712      4.98733      .   S
    N709   O713      4.23461      .   S
    Zr155  O713      5.03351      .   S
    N709   O714      4.91060      .   S
    Zr154  O714      5.71067      .   S
    N709   O715      4.90984      .   S
    Zr166  O715      5.69290      .   S
    N716   O717      5.40835      .   S
    Zr95   O717      6.31487      .   S
    N716   O718      5.34971      .   S
    Zr93   O718      6.22565      .   S
    N716   O719      4.17628      .   S
    Zr139  O719      4.95589      .   S
    N716   O720      4.87844      .   S
    Zr138  O720      5.66271      .   S
    N716   O721      4.92163      .   S
    Zr122  O721      5.70923  1_655   S
    N716   O722      4.24460      .   S
    Zr123  O722      5.02902  1_655   S
    N723   O724      5.32874      .   S
    Zr70   O724      6.18363      .   S
    N723   O725      4.84646      .   S
    Zr116  O725      5.61585      .   S
    N723   O726      5.42309      .   S
    Zr69   O726      6.34500      .   S
    N723   O727      4.29608      .   S
    Zr105  O727      5.09343  1_565   S
    N723   O728      4.95035      .   S
    Zr104  O728      5.74757  1_565   S
    N723   O729      4.12679      .   S
    Zr117  O729      4.89359      .   S
    N730   O731      5.41049      .   S
    Zr74   O731      6.30586      .   S
    N730   O732      5.39113      .   S
    Zr73   O732      6.28164      .   S
    N730   O733      4.90353      .   S
    Zr126  O733      5.68329      .   S
    N730   O734      4.21146      .   S
    Zr127  O734      4.98781      .   S
    N730   O735      4.88369      .   S
    Zr138  O735      5.66393      .   S
    N730   O736      4.18789      .   S
    Zr139  O736      4.96744      .   S
    N737   O738      5.39104      .   S
    Zr17   O738      6.28041      .   S
    N737   O739      5.41153      .   S
    Zr16   O739      6.30550      .   S
    N737   O740      4.22418      .   S
    Zr183  O740      4.99730  1_554   S
    N737   O741      4.92034      .   S
    Zr182  O741      5.70529  1_554   S
    N737   O742      4.19921      .   S
    Zr169  O742      4.98114      .   S
    N737   O743      4.89114      .   S
    Zr168  O743      5.67590      .   S
    N744   O745      5.39626      .   S
    Zr78   O745      6.28569      .   S
    N744   O746      5.41651      .   S
    Zr79   O746      6.30799      .   S
    N744   O747      4.18526      .   S
    Zr141  O747      4.96380      .   S
    N744   O748      4.88583      .   S
    Zr140  O748      5.67028      .   S
    N744   O749      4.22758      .   S
    Zr131  O749      5.00614  1_455   S
    N744   O750      4.91780      .   S
    Zr130  O750      5.70544  1_455   S
    N751   O752      5.39485      .   S
    Zr64   O752      6.29133      .   S
    N751   O753      5.36171      .   S
    Zr63   O753      6.24747      .   S
    N751   O754      4.86482      .   S
    Zr150  O754      5.64614      .   S
    N751   O755      4.16125      .   S
    Zr151  O755      4.94003      .   S
    N751   O756      4.25690      .   S
    Zr147  O756      5.04553      .   S
    N751   O757      4.92664      .   S
    Zr146  O757      5.71644      .   S
    N758   O759      4.18287      .   S
    Zr109  O759      4.96248  1_556   S
    N758   O760      4.88660      .   S
    Zr108  O760      5.67229  1_556   S
    N758   O761      4.24644      .   S
    Zr97   O761      5.02785  1_565   S
    N758   O762      4.93319      .   S
    Zr96   O762      5.72493  1_565   S
    N758   O763      5.40922      .   S
    Zr41   O763      6.28832      .   S
    N758   O764      5.42407      .   S
    Zr39   O764      6.32842      .   S
    N765   O766      5.39153      .   S
    Zr59   O766      6.26396      .   S
    N765   O767      5.41767      .   S
    Zr57   O767      6.32456      .   S
    N765   O768      4.21938      .   S
    Zr131  O768      4.99603  1_455   S
    N765   O769      4.91314      .   S
    Zr130  O769      5.69868  1_455   S
    N765   O770      4.19085      .   S
    Zr137  O770      4.97373      .   S
    N765   O771      4.88312      .   S
    Zr136  O771      5.66580      .   S
    N772   O773      5.40495      .   S
    Zr87   O773      6.29379      .   S
    N772   O774      5.39095      .   S
    Zr88   O774      6.28074      .   S
    N772   O775      4.19836      .   S
    Zr153  O775      4.98324      .   S
    N772   O776      4.23305      .   S
    Zr167  O776      5.01064  1_545   S
    N772   O777      4.92460      .   S
    Zr166  O777      5.71197  1_545   S
    N772   O778      4.89379      .   S
    Zr152  O778      5.68254      .   S
    N779   O780      5.37506      .   S
    Zr7    O780      6.26227      .   S
    N779   O781      5.40107      .   S
    Zr6    O781      6.29783      .   S
    N779   O782      4.26970      .   S
    Zr129  O782      5.05572  1_455   S
    N779   O783      4.94644      .   S
    Zr128  O783      5.74094  1_455   S
    N779   O784      4.16986      .   S
    Zr141  O784      4.95087      .   S
    N779   O785      4.87456      .   S
    Zr140  O785      5.65862      .   S
    N786   O787      5.41359      .   S
    Zr72   O787      6.30785      .   S
    N786   O788      5.42813      .   S
    Zr73   O788      6.31907      .   S
    N786   O789      4.89194      .   S
    Zr188  O789      5.68210      .   S
    N786   O790      4.18150      .   S
    Zr189  O790      4.96292      .   S
    N786   O791      4.26584      .   S
    Zr179  O791      5.05418      .   S
    N786   O792      4.94286      .   S
    Zr178  O792      5.73794      .   S
    N793   O794      5.42261      .   S
    Zr9    O794      6.32518      .   S
    N793   O795      5.38118      .   S
    Zr11   O795      6.25932      .   S
    N793   O796      4.17315      .   S
    Zr151  O796      4.94964  1_545   S
    N793   O797      4.87438      .   S
    Zr150  O797      5.65286  1_545   S
    N793   O798      4.22808      .   S
    Zr159  O798      5.00689      .   S
    N793   O799      4.91643      .   S
    Zr158  O799      5.70430      .   S
    N800   O801      5.37859      .   S
    Zr91   O801      6.25105      .   S
    N800   O802      5.44989      .   S
    Zr92   O802      6.36774      .   S
    N800   O803      4.18481      .   S
    Zr181  O803      4.96281  1_554   S
    N800   O804      4.88798      .   S
    Zr180  O804      5.67096  1_554   S
    N800   O805      4.25992      .   S
    Zr173  O805      5.04882      .   S
    N800   O806      4.93702      .   S
    Zr172  O806      5.73386      .   S
    N807   O808      5.39429      .   S
    Zr23   O808      6.27614      .   S
    N807   O809      5.44061      .   S
    Zr21   O809      6.34513      .   S
    N807   O810      4.19851      .   S
    Zr149  O810      4.98332  1_565   S
    N807   O811      4.89341      .   S
    Zr148  O811      5.68087  1_565   S
    N807   O812      4.26059      .   S
    Zr161  O812      5.04273      .   S
    N807   O813      4.94776      .   S
    Zr160  O813      5.74347      .   S
    N814   O815      5.37000      .   S
    Zr95   O815      6.23946      .   S
    N814   O816      5.44824      .   S
    Zr94   O816      6.36772      .   S
    N814   O817      4.27297      .   S
    Zr157  O817      5.06020      .   S
    N814   O818      4.94771      .   S
    Zr156  O818      5.74205      .   S
    N814   O819      4.16650      .   S
    Zr149  O819      4.94193      .   S
    N814   O820      4.87575      .   S
    Zr148  O820      5.65502      .   S
    N821   O822      5.36671      .   S
    Zr38   O822      6.23635      .   S
    N821   O823      5.43938      .   S
    Zr37   O823      6.35406      .   S
    N821   O824      4.88170      .   S
    Zr152  O824      5.66385      .   S
    N821   O825      4.17771      .   S
    Zr153  O825      4.95549      .   S
    N821   O826      4.25018      .   S
    Zr157  O826      5.03043      .   S
    N821   O827      4.93332      .   S
    Zr156  O827      5.72072      .   S
    N828   O829      5.40766      .   S
    Zr26   O829      6.28397      .   S
    N828   O830      5.42868      .   S
    Zr24   O830      6.33703      .   S
    N828   O831      4.92450      .   S
    Zr140  O831      5.70942      .   S
    N828   O832      4.23537      .   S
    Zr133  O832      5.03078      .   S
    N828   O833      4.91804      .   S
    Zr132  O833      5.71502      .   S
    N828   O834      4.23085      .   S
    Zr141  O834      5.00903      .   S
    N835   O836      5.42986      .   S
    Zr41   O836      6.33735      .   S
    N835   O837      5.38079      .   S
    Zr40   O837      6.26062      .   S
    N835   O838      4.87017      .   S
    Zr180  O838      5.64753      .   S
    N835   O839      4.15548      .   S
    Zr181  O839      4.92748      .   S
    N835   O840      4.25346      .   S
    Zr177  O840      5.04103      .   S
    N835   O841      4.92781      .   S
    Zr176  O841      5.71474      .   S
    N842   O843      5.45713      .   S
    Zr82   O843      6.37756      .   S
    N842   O844      5.38117      .   S
    Zr83   O844      6.25161      .   S
    N842   O845      4.31101      .   S
    Zr163  O845      5.10895      .   S
    N842   O846      4.97178      .   S
    Zr162  O846      5.77607      .   S
    N842   O847      4.15836      .   S
    Zr151  O847      4.93501      .   S
    N842   O848      4.87109      .   S
    Zr150  O848      5.65136      .   S
    N849   O850      5.44013      .   S
    Zr91   O850      6.34741      .   S
    N849   O851      5.38417      .   S
    Zr90   O851      6.26127      .   S
    N849   O852      4.16462      .   S
    Zr143  O852      4.94073      .   S
    N849   O853      4.87263      .   S
    Zr142  O853      5.65069      .   S
    N849   O854      4.27109      .   S
    Zr129  O854      5.06174      .   S
    N849   O855      4.94771      .   S
    Zr128  O855      5.74678      .   S
    N856   O857      5.44097      .   S
    Zr28   O857      6.34772      .   S
    N856   O858      5.40163      .   S
    Zr29   O858      6.28874      .   S
    N856   O859      4.96063      .   S
    Zr186  O859      5.76008      .   S
    N856   O860      4.28718      .   S
    Zr187  O860      5.07601  1_556   S
    N856   O861      4.17233      .   S
    Zr179  O861      4.95284      .   S
    N856   O862      4.88130      .   S
    Zr178  O862      5.66728      .   S
    N863   O864      5.42993      .   S
    Zr6    O864      6.33590      .   S
    N863   O865      5.37682      .   S
    Zr8    O865      6.25018      .   S
    N863   O866      4.13086      .   S
    Zr175  O866      4.89819      .   S
    N863   O867      4.85291      .   S
    Zr174  O867      5.62572      .   S
    N863   O868      4.28146      .   S
    Zr183  O868      5.06850  1_554   S
    N863   O869      4.95383      .   S
    Zr182  O869      5.74884  1_554   S
    N870   O871      5.40891      .   S
    Zr55   O871      6.29654      .   S
    N870   O872      5.41306      .   S
    Zr56   O872      6.31571      .   S
    N870   O873      4.24930      .   S
    Zr183  O873      5.03134      .   S
    N870   O874      4.93511      .   S
    Zr182  O874      5.72763      .   S
    N870   O875      4.19527      .   S
    Zr191  O875      4.98029      .   S
    N870   O876      4.88830      .   S
    Zr190  O876      5.67510      .   S
    N877   O878      5.40922      .   S
    Zr23   O878      6.29988      .   S
    N877   O879      5.43530      .   S
    Zr22   O879      6.33061      .   S
    N877   O880      4.21090      .   S
    Zr121  O880      4.99603      .   S
    N877   O881      4.90590      .   S
    Zr120  O881      5.69455      .   S
    N877   O882      4.93873      .   S
    Zr134  O882      5.72917      .   S
    N877   O883      4.25722      .   S
    Zr135  O883      5.04190      .   S
    N884   O885      4.16392      .   S
    Zr133  O885      4.93673      .   S
    N884   O886      4.86894      .   S
    Zr132  O886      5.64324      .   S
    N884   O887      5.37786      .   S
    Zr46   O887      6.25494      .   S
    N884   O888      4.24017      .   S
    Zr129  O888      5.01909  1_455   S
    N884   O889      4.92685      .   S
    Zr128  O889      5.71572  1_455   S
    N884   O890      5.43171      .   S
    Zr47   O890      6.33876      .   S
    N891   O892      4.26263      .   S
    Zr173  O892      5.05351      .   S
    N891   O893      4.93062      .   S
    Zr172  O893      5.72299      .   S
    N891   O894      4.15464      .   S
    Zr169  O894      4.93031      .   S
    N891   O895      4.86338      .   S
    Zr168  O895      5.64167      .   S
    N891   O896      5.42675      .   S
    Zr48   O896      6.33254      .   S
    N891   O897      5.37451      .   S
    Zr49   O897      6.24755      .   S
    N898   O899      4.24594      .   S
    Zr167  O899      5.03301      .   S
    N898   O900      4.92967      .   S
    Zr166  O900      5.72612      .   S
    N898   O901      4.20728      .   S
    Zr163  O901      4.99510      .   S
    N898   O902      4.90103      .   S
    Zr162  O902      5.69385      .   S
    N898   O903      5.40568      .   S
    Zr45   O903      6.29923      .   S
    N898   O904      5.42543      .   S
    Zr47   O904      6.32015      .   S
    N905   O906      4.19164      .   S
    Zr191  O906      4.97401      .   S
    N905   O907      4.89240      .   S
    Zr190  O907      5.68287      .   S
    N905   O908      4.24827      .   S
    Zr187  O908      5.02961  1_556   S
    N905   O909      4.93154      .   S
    Zr186  O909      5.72186      .   S
    N905   O910      5.40765      .   S
    Zr42   O910      6.29805      .   S
    N905   O911      5.38907      .   S
    Zr44   O911      6.27505      .   S
