# CIF file generated by openbabel 2.4.90, see http://openbabel.sf.net
data_I
_chemical_name_common ''
_cell_length_a 11.6884
_cell_length_b 5.5643
_cell_length_c 22.8159
_cell_angle_alpha 90
_cell_angle_beta 100.691
_cell_angle_gamma 90
_space_group_name_H-M_alt 'P 1'
_space_group_name_Hall 'P 1'
loop_
    _symmetry_equiv_pos_as_xyz
    x,y,z
loop_
    _atom_site_label
    _atom_site_type_symbol
    _atom_site_fract_x
    _atom_site_fract_y
    _atom_site_fract_z
    _atom_site_occupancy
    Zr0     Zr   0.86258   0.75633   0.27818   1.000
    Zr1     Zr   0.63742   0.25633   0.22182   1.000
    Zr2     Zr   0.13742   0.24367   0.72182   1.000
    Zr3     Zr   0.36258   0.74367   0.77818   1.000
    N4      N    0.24847   0.33302   0.06843   1.000
    O5      O    0.40736   0.30700   0.12210   1.000
    O6      O    0.28083   0.10828   0.93573   1.000
    O7      O    0.08664   0.11155   0.16539   1.000
    O8      O    0.07935   0.46029   0.16761   1.000
    O9      O    0.27996   0.45619   0.93103   1.000
    N10     N    0.25153   0.83302   0.43157   1.000
    O11     O    0.21917   0.60828   0.56427   1.000
    O12     O    0.41336   0.61155   0.33461   1.000
    O13     O    0.22004   0.95619   0.56897   1.000
    O14     O    0.42065   0.96029   0.33239   1.000
    O15     O    0.09264   0.80700   0.37790   1.000
    N16     N    0.75153   0.66698   0.93157   1.000
    O17     O    0.72004   0.54381   0.06897   1.000
    O18     O    0.91336   0.88845   0.83461   1.000
    O19     O    0.92065   0.53971   0.83239   1.000
    O20     O    0.71917   0.89172   0.06427   1.000
    O21     O    0.59264   0.69300   0.87790   1.000
    N22     N    0.74847   0.16698   0.56843   1.000
    O23     O    0.57935   0.03971   0.66761   1.000
    O24     O    0.90736   0.19300   0.62210   1.000
    O25     O    0.58664   0.38845   0.66539   1.000
    O26     O    0.78083   0.39172   0.43573   1.000
    O27     O    0.77996   0.04381   0.43103   1.000
    O28     O    0.27590   0.78224   0.58071   1.000
    O29     O    0.22410   0.28224   0.91929   1.000
    O30     O    0.77590   0.71776   0.08071   1.000
    O31     O    0.72410   0.21776   0.41929   1.000
loop_
    _geom_bond_atom_site_label_1
    _geom_bond_atom_site_label_2
    _geom_bond_distance
    _geom_bond_site_symmetry_2
    _ccdc_geom_bond_type
    N4     O5        2.03108      .   S
    Zr1    O5        3.19648      .   S
    N4     O6        3.36133  1_554   S
    Zr3    O6        4.38467  1_565   S
    N4     O7        3.39749      .   S
    Zr0    O7        4.45962  1_665   S
    N4     O8        3.34496      .   S
    Zr0    O8        4.22721  1_655   S
    N4     O9        3.29560  1_554   S
    Zr3    O9        4.11136      .   S
    N10    O11       3.36133      .   S
    Zr2    O11       4.38467      .   S
    N10    O12       3.39749      .   S
    Zr1    O12       4.45962      .   S
    N10    O13       3.29560      .   S
    Zr2    O13       4.11136  1_545   S
    N10    O14       3.34496      .   S
    Zr1    O14       4.22721  1_545   S
    N10    O15       2.03108      .   S
    Zr0    O15       3.19648  1_655   S
    N16    O17       3.29560  1_556   S
    Zr1    O17       4.11136      .   S
    N16    O18       3.39749      .   S
    Zr2    O18       4.45962  1_445   S
    N16    O19       3.34496      .   S
    Zr2    O19       4.22721  1_455   S
    N16    O20       3.36133  1_556   S
    Zr1    O20       4.38467  1_545   S
    N16    O21       2.03108      .   S
    Zr3    O21       3.19648      .   S
    N22    O23       3.34496      .   S
    Zr3    O23       4.22721  1_565   S
    N22    O24       2.03108      .   S
    Zr2    O24       3.19648  1_455   S
    N22    O25       3.39749      .   S
    Zr3    O25       4.45962      .   S
    N22    O26       3.36133      .   S
    Zr0    O26       4.38467      .   S
    N22    O27       3.29560      .   S
    Zr0    O27       4.11136  1_565   S
    Zr3    O28       4.43602      .   S
    N10    O28       3.37348      .   S
    Zr2    O29       4.43602      .   S
    N4     O29       3.37348  1_554   S
    Zr0    O30       4.43602      .   S
    N16    O30       3.37348  1_556   S
    Zr1    O31       4.43602      .   S
    N22    O31       3.37348      .   S
