# CIF file generated by openbabel 2.4.90, see http://openbabel.sf.net
data_I
_chemical_name_common ''
_cell_length_a 18.5949
_cell_length_b 18.5949
_cell_length_c 18.595
_cell_angle_alpha 89.9998
_cell_angle_beta 120
_cell_angle_gamma 120
_space_group_name_H-M_alt 'P 1'
_space_group_name_Hall 'P 1'
loop_
    _symmetry_equiv_pos_as_xyz
    x,y,z
loop_
    _atom_site_label
    _atom_site_type_symbol
    _atom_site_fract_x
    _atom_site_fract_y
    _atom_site_fract_z
    _atom_site_occupancy
    Zr0     Zr   0.00000   0.00000   0.43480   1.000
    Zr1     Zr   0.99999   0.56519   0.00000   1.000
    Zr2     Zr   0.56520   0.56520   0.00000   1.000
    Zr3     Zr   0.56519   0.99999   0.56520   1.000
    Zr4     Zr   0.56520   0.00000   0.00000   1.000
    Zr5     Zr   0.56520   0.56520   0.56520   1.000
    Zr6     Zr   0.00000   0.00000   0.56520   1.000
    Zr7     Zr   0.00001   0.43481   0.00000   1.000
    Zr8     Zr   0.43480   0.43480   0.00000   1.000
    Zr9     Zr   0.43481   0.00001   0.43480   1.000
    Zr10    Zr   0.43480   0.00000   0.00000   1.000
    Zr11    Zr   0.43480   0.43480   0.43480   1.000
    O12     O    0.00000   0.00000   0.50000   1.000
    O13     O    0.00000   0.50000   0.00000   1.000
    O14     O    0.50000   0.50000   0.00000   1.000
    O15     O    0.50000   0.00000   0.50000   1.000
    O16     O    0.50000   0.00000   0.00000   1.000
    O17     O    0.50000   0.50000   0.50000   1.000
    N18     N    0.68358   0.02538   0.34179   1.000
    O19     O    0.81552   0.01782   0.43936   1.000
    O20     O    0.57846   0.01782   0.37617   1.000
    O21     O    0.81552   0.01781   0.37616   1.000
    O22     O    0.64165   0.01781   0.43936   1.000
    O23     O    0.64165   0.01781   0.20229   1.000
    O24     O    0.57846   0.01782   0.20229   1.000
    N25     N    0.68358   0.34179   0.65821   1.000
    O26     O    0.57846   0.20230   0.56064   1.000
    O27     O    0.57846   0.37616   0.56064   1.000
    O28     O    0.81552   0.43935   0.79771   1.000
    O29     O    0.64165   0.43936   0.62384   1.000
    O30     O    0.81553   0.37617   0.79771   1.000
    O31     O    0.64165   0.20229   0.62384   1.000
    N32     N    0.68359   0.34179   0.02538   1.000
    O33     O    0.81552   0.43935   0.01781   1.000
    O34     O    0.57846   0.37616   0.01781   1.000
    O35     O    0.81553   0.37617   0.01782   1.000
    O36     O    0.57846   0.20229   0.01781   1.000
    O37     O    0.64165   0.20229   0.01781   1.000
    O38     O    0.64165   0.43936   0.01781   1.000
    N39     N    0.31642   0.97462   0.65821   1.000
    O40     O    0.35835   0.98219   0.56064   1.000
    O41     O    0.18448   0.98218   0.56064   1.000
    O42     O    0.42154   0.98218   0.62384   1.000
    O43     O    0.18448   0.98219   0.62384   1.000
    O44     O    0.42154   0.98218   0.79771   1.000
    O45     O    0.35835   0.98219   0.79771   1.000
    N46     N    0.68358   0.65821   0.34179   1.000
    O47     O    0.81552   0.79771   0.43936   1.000
    O48     O    0.81552   0.79771   0.37616   1.000
    O49     O    0.57845   0.56064   0.20229   1.000
    O50     O    0.64165   0.62384   0.43936   1.000
    O51     O    0.57846   0.56064   0.37616   1.000
    O52     O    0.64165   0.62384   0.20229   1.000
    N53     N    0.31641   0.65821   0.34179   1.000
    O54     O    0.18448   0.56065   0.20229   1.000
    O55     O    0.35835   0.56064   0.37616   1.000
    O56     O    0.42154   0.79770   0.43936   1.000
    O57     O    0.18447   0.62383   0.20229   1.000
    O58     O    0.35835   0.79771   0.37616   1.000
    O59     O    0.42154   0.62383   0.43936   1.000
    N60     N    0.31641   0.65821   0.97463   1.000
    O61     O    0.18448   0.56065   0.98219   1.000
    O62     O    0.18447   0.62383   0.98219   1.000
    O63     O    0.42154   0.62384   0.98219   1.000
    O64     O    0.35835   0.56064   0.98219   1.000
    O65     O    0.35835   0.79771   0.98219   1.000
    O66     O    0.42154   0.79771   0.98219   1.000
    N67     N    0.31642   0.34179   0.65821   1.000
    O68     O    0.42155   0.43936   0.79771   1.000
    O69     O    0.18448   0.20229   0.56064   1.000
    O70     O    0.42154   0.43936   0.62384   1.000
    O71     O    0.35835   0.37616   0.56064   1.000
    O72     O    0.18448   0.20229   0.62384   1.000
    O73     O    0.35835   0.37616   0.79771   1.000
loop_
    _geom_bond_atom_site_label_1
    _geom_bond_atom_site_label_2
    _geom_bond_distance
    _geom_bond_site_symmetry_2
    _ccdc_geom_bond_type
    Zr0    O12       1.21239      .   S
    Zr6    O12       1.21239      .   S
    Zr1    O13       1.21230  1_655   S
    Zr7    O13       1.21230      .   S
    Zr2    O14       1.21238      .   S
    Zr8    O14       1.21238      .   S
    Zr3    O15       1.21239  1_565   S
    Zr9    O15       1.21239      .   S
    Zr4    O16       1.21239      .   S
    Zr10   O16       1.21239      .   S
    Zr5    O17       1.21239      .   S
    Zr11   O17       1.21239      .   S
    N18    O19       2.28564      .   S
    Zr6    O19       3.23451  1_455   S
    N18    O20       2.28560      .   S
    Zr9    O20       3.23442      .   S
    N18    O21       2.28563      .   S
    Zr0    O21       3.23452  1_455   S
    N18    O22       2.28570      .   S
    Zr3    O22       3.23456  1_565   S
    N18    O23       2.28570      .   S
    Zr4    O23       3.23451      .   S
    N18    O24       2.28566      .   S
    Zr10   O24       3.23453      .   S
    N25    O26       2.28560      .   S
    Zr9    O26       3.23442      .   S
    N25    O27       2.28566      .   S
    Zr11   O27       3.23452      .   S
    N25    O28       2.28561      .   S
    Zr1    O28       3.23448  1_554   S
    N25    O29       2.28567      .   S
    Zr5    O29       3.23451      .   S
    N25    O30       2.28565      .   S
    Zr7    O30       3.23452  1_454   S
    N25    O31       2.28569      .   S
    Zr3    O31       3.23456  1_565   S
    N32    O33       2.28555      .   S
    Zr1    O33       3.23435      .   S
    N32    O34       2.28565      .   S
    Zr8    O34       3.23454      .   S
    N32    O35       2.28568      .   S
    Zr7    O35       3.23455  1_455   S
    N32    O36       2.28564      .   S
    Zr10   O36       3.23452      .   S
    N32    O37       2.28565      .   S
    Zr4    O37       3.23452      .   S
    N32    O38       2.28565      .   S
    Zr2    O38       3.23453      .   S
    N39    O40       2.28570      .   S
    Zr9    O40       3.23457  1_545   S
    N39    O41       2.28565      .   S
    Zr0    O41       3.23451  1_545   S
    N39    O42       2.28557      .   S
    Zr3    O42       3.23446      .   S
    N39    O43       2.28563      .   S
    Zr6    O43       3.23452  1_545   S
    N39    O44       2.28566      .   S
    Zr4    O44       3.23452  1_544   S
    N39    O45       2.28569      .   S
    Zr10   O45       3.23450  1_544   S
    N46    O47       2.28563      .   S
    Zr6    O47       3.23449  1_445   S
    N46    O48       2.28562      .   S
    Zr0    O48       3.23451  1_445   S
    N46    O49       2.28566      .   S
    Zr8    O49       3.23454      .   S
    N46    O50       2.28565      .   S
    Zr5    O50       3.23446      .   S
    N46    O51       2.28560      .   S
    Zr11   O51       3.23449      .   S
    N46    O52       2.28567      .   S
    Zr2    O52       3.23456      .   S
    N53    O54       2.28561      .   S
    Zr7    O54       3.23448      .   S
    N53    O55       2.28567      .   S
    Zr11   O55       3.23451      .   S
    N53    O56       2.28560      .   S
    Zr3    O56       3.23442      .   S
    N53    O57       2.28565      .   S
    Zr1    O57       3.23452  1_655   S
    N53    O58       2.28570      .   S
    Zr9    O58       3.23456  1_545   S
    N53    O59       2.28566      .   S
    Zr5    O59       3.23452      .   S
    N60    O61       2.28554      .   S
    Zr7    O61       3.23434  1_554   S
    N60    O62       2.28567      .   S
    Zr1    O62       3.23454  1_654   S
    N60    O63       2.28566      .   S
    Zr2    O63       3.23455  1_554   S
    N60    O64       2.28565      .   S
    Zr8    O64       3.23454  1_554   S
    N60    O65       2.28564      .   S
    Zr10   O65       3.23451  1_544   S
    N60    O66       2.28564      .   S
    Zr4    O66       3.23452  1_544   S
    N67    O68       2.28565      .   S
    Zr2    O68       3.23453  1_554   S
    N67    O69       2.28567      .   S
    Zr0    O69       3.23446      .   S
    N67    O70       2.28562      .   S
    Zr5    O70       3.23451      .   S
    N67    O71       2.28563      .   S
    Zr11   O71       3.23453      .   S
    N67    O72       2.28561      .   S
    Zr6    O72       3.23450      .   S
    N67    O73       2.28565      .   S
    Zr8    O73       3.23454  1_554   S
