# CIF file generated by openbabel 2.4.90, see http://openbabel.sf.net
data_I
_chemical_name_common ''
_cell_length_a 11.6884
_cell_length_b 5.5643
_cell_length_c 22.8159
_cell_angle_alpha 90
_cell_angle_beta 100.691
_cell_angle_gamma 90
_space_group_name_H-M_alt 'P 1'
_space_group_name_Hall 'P 1'
loop_
    _symmetry_equiv_pos_as_xyz
    x,y,z
loop_
    _atom_site_label
    _atom_site_type_symbol
    _atom_site_fract_x
    _atom_site_fract_y
    _atom_site_fract_z
    _atom_site_occupancy
    Zr0     Zr   0.86258   0.75633   0.27818   1.000
    Zr1     Zr   0.63742   0.25633   0.22182   1.000
    Zr2     Zr   0.13742   0.24367   0.72182   1.000
    Zr3     Zr   0.36258   0.74367   0.77818   1.000
    N4      N    0.24847   0.33302   0.06843   1.000
    O5      O    0.40736   0.30700   0.12210   1.000
    O6      O    0.22454   0.23328   0.92164   1.000
    O7      O    0.28083   0.10828   0.93573   1.000
    O8      O    0.08664   0.11155   0.16539   1.000
    O9      O    0.07935   0.46029   0.16761   1.000
    O10     O    0.22367   0.33119   0.91694   1.000
    O11     O    0.27996   0.45619   0.93103   1.000
    N12     N    0.25153   0.83302   0.43157   1.000
    O13     O    0.21917   0.60828   0.56427   1.000
    O14     O    0.27546   0.73328   0.57836   1.000
    O15     O    0.41336   0.61155   0.33461   1.000
    O16     O    0.27633   0.83119   0.58306   1.000
    O17     O    0.22004   0.95619   0.56897   1.000
    O18     O    0.42065   0.96029   0.33239   1.000
    O19     O    0.09264   0.80700   0.37790   1.000
    N20     N    0.75153   0.66698   0.93157   1.000
    O21     O    0.77633   0.66881   0.08306   1.000
    O22     O    0.72004   0.54381   0.06897   1.000
    O23     O    0.91336   0.88845   0.83461   1.000
    O24     O    0.92065   0.53971   0.83239   1.000
    O25     O    0.77546   0.76672   0.07836   1.000
    O26     O    0.71917   0.89172   0.06427   1.000
    O27     O    0.59264   0.69300   0.87790   1.000
    N28     N    0.74847   0.16698   0.56843   1.000
    O29     O    0.57935   0.03971   0.66761   1.000
    O30     O    0.90736   0.19300   0.62210   1.000
    O31     O    0.58664   0.38845   0.66539   1.000
    O32     O    0.78083   0.39172   0.43573   1.000
    O33     O    0.72454   0.26672   0.42164   1.000
    O34     O    0.72367   0.16881   0.41694   1.000
    O35     O    0.77996   0.04381   0.43103   1.000
loop_
    _geom_bond_atom_site_label_1
    _geom_bond_atom_site_label_2
    _geom_bond_distance
    _geom_bond_site_symmetry_2
    _ccdc_geom_bond_type
    N4     O5        2.03108      .   S
    Zr1    O5        3.19648      .   S
    N4     O6        3.35493  1_554   S
    Zr2    O6        4.48366      .   S
    N4     O7        3.36133  1_554   S
    Zr3    O7        4.38467  1_565   S
    N4     O8        3.39749      .   S
    Zr0    O8        4.45962  1_665   S
    N4     O9        3.34496      .   S
    Zr0    O9        4.22721  1_655   S
    N4     O10       3.41454  1_554   S
    Zr2    O10       4.40538      .   S
    N4     O11       3.29560  1_554   S
    Zr3    O11       4.11136      .   S
    N12    O13       3.36133      .   S
    Zr2    O13       4.38467      .   S
    N12    O14       3.35493      .   S
    Zr3    O14       4.48366      .   S
    N12    O15       3.39749      .   S
    Zr1    O15       4.45962      .   S
    N12    O16       3.41454      .   S
    Zr3    O16       4.40538      .   S
    N12    O17       3.29560      .   S
    Zr2    O17       4.11136  1_545   S
    N12    O18       3.34496      .   S
    Zr1    O18       4.22721  1_545   S
    N12    O19       2.03108      .   S
    Zr0    O19       3.19648  1_655   S
    N20    O21       3.41454  1_556   S
    Zr0    O21       4.40538      .   S
    N20    O22       3.29560  1_556   S
    Zr1    O22       4.11136      .   S
    N20    O23       3.39749      .   S
    Zr2    O23       4.45962  1_445   S
    N20    O24       3.34496      .   S
    Zr2    O24       4.22721  1_455   S
    N20    O25       3.35493  1_556   S
    Zr0    O25       4.48366      .   S
    N20    O26       3.36133  1_556   S
    Zr1    O26       4.38467  1_545   S
    N20    O27       2.03108      .   S
    Zr3    O27       3.19648      .   S
    N28    O29       3.34496      .   S
    Zr3    O29       4.22721  1_565   S
    N28    O30       2.03108      .   S
    Zr2    O30       3.19648  1_455   S
    N28    O31       3.39749      .   S
    Zr3    O31       4.45962      .   S
    N28    O32       3.36133      .   S
    Zr0    O32       4.38467      .   S
    N28    O33       3.35493      .   S
    Zr1    O33       4.48366      .   S
    N28    O34       3.41454      .   S
    Zr1    O34       4.40538      .   S
    N28    O35       3.29560      .   S
    Zr0    O35       4.11136  1_565   S
