# CIF file generated by openbabel 2.4.90, see http://openbabel.sf.net
data_I
_chemical_name_common ''
_cell_length_a 18.5949
_cell_length_b 18.5949
_cell_length_c 18.595
_cell_angle_alpha 89.9998
_cell_angle_beta 120
_cell_angle_gamma 120
_space_group_name_H-M_alt 'P 1'
_space_group_name_Hall 'P 1'
loop_
    _symmetry_equiv_pos_as_xyz
    x,y,z
loop_
    _atom_site_label
    _atom_site_type_symbol
    _atom_site_fract_x
    _atom_site_fract_y
    _atom_site_fract_z
    _atom_site_occupancy
    C0      C    0.00000   0.00000   0.43480   1.000
    C1      C    0.99999   0.56519   0.00000   1.000
    C2      C    0.56520   0.56520   0.00000   1.000
    C3      C    0.56519   0.99999   0.56520   1.000
    C4      C    0.56520   0.00000   0.00000   1.000
    C5      C    0.56520   0.56520   0.56520   1.000
    C6      C    0.00000   0.00000   0.56520   1.000
    C7      C    0.00001   0.43481   0.00000   1.000
    C8      C    0.43480   0.43480   0.00000   1.000
    C9      C    0.43481   0.00001   0.43480   1.000
    C10     C    0.43480   0.00000   0.00000   1.000
    C11     C    0.43480   0.43480   0.43480   1.000
    C12     C    0.76270   0.73462   0.26539   1.000
    C13     C    0.76271   0.02809   0.49732   1.000
    C14     C    0.23730   0.73462   0.26538   1.000
    C15     C    0.23730   0.50269   0.97192   1.000
    C16     C    0.46923   0.73461   0.97192   1.000
    C17     C    0.53077   0.50269   0.26538   1.000
    C18     C    0.46923   0.73462   0.49731   1.000
    C19     C    0.53078   0.02809   0.26538   1.000
    C20     C    0.76270   0.02808   0.26538   1.000
    C21     C    0.23730   0.73462   0.97192   1.000
    C22     C    0.23731   0.50269   0.26538   1.000
    C23     C    0.76270   0.73462   0.49732   1.000
    C24     C    0.23729   0.26538   0.50268   1.000
    C25     C    0.23730   0.97192   0.73462   1.000
    C26     C    0.76270   0.26538   0.02809   1.000
    C27     C    0.76269   0.49731   0.73462   1.000
    C28     C    0.53076   0.26538   0.50269   1.000
    C29     C    0.46923   0.49732   0.73462   1.000
    C30     C    0.53077   0.26539   0.02809   1.000
    C31     C    0.46922   0.97191   0.73462   1.000
    C32     C    0.23729   0.97191   0.50268   1.000
    C33     C    0.76270   0.26538   0.73462   1.000
    C34     C    0.76269   0.49731   0.02809   1.000
    C35     C    0.23729   0.26538   0.73462   1.000
    C36     C    0.72985   0.70015   0.29985   1.000
    C37     C    0.72985   0.02970   0.43001   1.000
    C38     C    0.27014   0.70015   0.29985   1.000
    C39     C    0.27014   0.56999   0.97030   1.000
    C40     C    0.40030   0.70015   0.97030   1.000
    C41     C    0.59970   0.57000   0.29985   1.000
    C42     C    0.40030   0.70015   0.43001   1.000
    C43     C    0.59969   0.02970   0.29985   1.000
    C44     C    0.72985   0.02970   0.29985   1.000
    C45     C    0.27014   0.70015   0.97030   1.000
    C46     C    0.27015   0.57000   0.29985   1.000
    C47     C    0.72985   0.70015   0.43001   1.000
    C48     C    0.27015   0.29985   0.56999   1.000
    C49     C    0.27015   0.97030   0.70015   1.000
    C50     C    0.72986   0.29985   0.02970   1.000
    C51     C    0.72985   0.43000   0.70015   1.000
    C52     C    0.59970   0.29985   0.56999   1.000
    C53     C    0.40030   0.43000   0.70015   1.000
    C54     C    0.59970   0.29985   0.02970   1.000
    C55     C    0.40031   0.97030   0.70015   1.000
    C56     C    0.27015   0.97030   0.56999   1.000
    C57     C    0.72986   0.29985   0.70015   1.000
    C58     C    0.72986   0.43001   0.02970   1.000
    C59     C    0.27015   0.29985   0.70015   1.000
    C60     C    0.86158   0.83775   0.43079   1.000
    C61     C    0.86158   0.02383   0.43079   1.000
    C62     C    0.13842   0.56921   0.16225   1.000
    C63     C    0.13842   0.56921   0.97617   1.000
    C64     C    0.40696   0.56921   0.97617   1.000
    C65     C    0.59304   0.56921   0.16225   1.000
    C66     C    0.40696   0.83775   0.43079   1.000
    C67     C    0.59304   0.02383   0.43079   1.000
    C68     C    0.59304   0.02383   0.16225   1.000
    C69     C    0.40696   0.83775   0.97617   1.000
    C70     C    0.40696   0.56921   0.43079   1.000
    C71     C    0.59304   0.56921   0.43079   1.000
    C72     C    0.13842   0.16225   0.56921   1.000
    C73     C    0.13842   0.97617   0.56921   1.000
    C74     C    0.86158   0.43079   0.02383   1.000
    C75     C    0.86158   0.43079   0.83775   1.000
    C76     C    0.59304   0.43079   0.56921   1.000
    C77     C    0.40696   0.43079   0.56921   1.000
    C78     C    0.59304   0.16225   0.02383   1.000
    C79     C    0.40696   0.97617   0.83775   1.000
    C80     C    0.40696   0.97617   0.56921   1.000
    C81     C    0.59304   0.16225   0.56921   1.000
    C82     C    0.59304   0.43079   0.02383   1.000
    C83     C    0.40696   0.43079   0.83775   1.000
    C84     C    0.77303   0.74340   0.38652   1.000
    C85     C    0.77303   0.02963   0.38652   1.000
    C86     C    0.22696   0.61348   0.25660   1.000
    C87     C    0.22696   0.61348   0.97037   1.000
    C88     C    0.35688   0.61348   0.97037   1.000
    C89     C    0.64311   0.61348   0.25660   1.000
    C90     C    0.35688   0.74340   0.38652   1.000
    C91     C    0.64311   0.02963   0.38652   1.000
    C92     C    0.64311   0.02963   0.25660   1.000
    C93     C    0.35688   0.74340   0.97037   1.000
    C94     C    0.35688   0.61348   0.38652   1.000
    C95     C    0.64311   0.61348   0.38652   1.000
    C96     C    0.22697   0.25660   0.61348   1.000
    C97     C    0.22697   0.97037   0.61348   1.000
    C98     C    0.77304   0.38652   0.02963   1.000
    C99     C    0.77304   0.38652   0.74341   1.000
    C100    C    0.64312   0.38652   0.61348   1.000
    C101    C    0.35689   0.38652   0.61348   1.000
    C102    C    0.64312   0.25660   0.02963   1.000
    C103    C    0.35689   0.97037   0.74340   1.000
    C104    C    0.35689   0.97037   0.61348   1.000
    C105    C    0.64312   0.25660   0.61348   1.000
    C106    C    0.64312   0.38652   0.02963   1.000
    C107    C    0.35689   0.38652   0.74341   1.000
    C108    C    0.89491   0.87441   0.38627   1.000
    C109    C    0.89492   0.02051   0.50865   1.000
    C110    C    0.10507   0.61372   0.12559   1.000
    C111    C    0.10509   0.49136   0.97950   1.000
    C112    C    0.48814   0.61373   0.97950   1.000
    C113    C    0.51185   0.49135   0.12559   1.000
    C114    C    0.48813   0.87441   0.50864   1.000
    C115    C    0.51187   0.02051   0.38628   1.000
    C116    C    0.63423   0.02050   0.12558   1.000
    C117    C    0.36576   0.87441   0.97950   1.000
    C118    C    0.36578   0.49136   0.38627   1.000
    C119    C    0.63423   0.61373   0.50865   1.000
    C120    C    0.10507   0.12558   0.49135   1.000
    C121    C    0.10509   0.97950   0.61373   1.000
    C122    C    0.89493   0.38628   0.02051   1.000
    C123    C    0.89491   0.50864   0.87441   1.000
    C124    C    0.51186   0.38627   0.49135   1.000
    C125    C    0.48814   0.50864   0.61373   1.000
    C126    C    0.51186   0.12559   0.02050   1.000
    C127    C    0.48814   0.97949   0.87441   1.000
    C128    C    0.36577   0.97950   0.49135   1.000
    C129    C    0.63423   0.12558   0.61373   1.000
    C130    C    0.63424   0.50865   0.02050   1.000
    C131    C    0.36577   0.38627   0.87441   1.000
    C132    C    0.10509   0.12559   0.61373   1.000
    C133    C    0.10508   0.97949   0.49135   1.000
    C134    C    0.89493   0.38628   0.87441   1.000
    C135    C    0.89491   0.50864   0.02050   1.000
    C136    C    0.51186   0.38627   0.02050   1.000
    C137    C    0.48815   0.50865   0.87441   1.000
    C138    C    0.51187   0.12559   0.49136   1.000
    C139    C    0.48813   0.97949   0.61373   1.000
    C140    C    0.36577   0.97950   0.87442   1.000
    C141    C    0.63424   0.12559   0.02050   1.000
    C142    C    0.63422   0.50864   0.61373   1.000
    C143    C    0.36577   0.38627   0.49136   1.000
    C144    C    0.89492   0.87441   0.50865   1.000
    C145    C    0.89491   0.02050   0.38627   1.000
    C146    C    0.10507   0.61372   0.97949   1.000
    C147    C    0.10509   0.49136   0.12559   1.000
    C148    C    0.48813   0.61372   0.50865   1.000
    C149    C    0.51186   0.49136   0.38627   1.000
    C150    C    0.48814   0.87441   0.97950   1.000
    C151    C    0.51186   0.02051   0.12559   1.000
    C152    C    0.63423   0.02050   0.50865   1.000
    C153    C    0.36577   0.87442   0.38627   1.000
    C154    C    0.36577   0.49136   0.97950   1.000
    C155    C    0.63423   0.61373   0.12559   1.000
    O156    O    0.47333   0.41053   0.01025   1.000
    O157    O    0.47332   0.46307   0.06279   1.000
    O158    O    0.40029   0.41053   0.93720   1.000
    O159    O    0.40028   0.46308   0.98975   1.000
    O160    O    0.94745   0.53691   0.01025   1.000
    O161    O    0.05253   0.58945   0.06279   1.000
    O162    O    0.94745   0.53691   0.93720   1.000
    O163    O    0.05253   0.58945   0.98974   1.000
    O164    O    0.59972   0.53692   0.01025   1.000
    O165    O    0.59971   0.58946   0.06279   1.000
    O166    O    0.52668   0.53692   0.93720   1.000
    O167    O    0.52667   0.58946   0.98975   1.000
    O168    O    0.94747   0.41054   0.01025   1.000
    O169    O    0.05255   0.46308   0.06279   1.000
    O170    O    0.94747   0.41054   0.93720   1.000
    O171    O    0.05255   0.46308   0.98975   1.000
    O172    O    0.55245   0.40853   0.02216   1.000
    O173    O    0.87824   0.46971   0.02216   1.000
    O174    O    0.61364   0.14392   0.02216   1.000
    O175    O    0.59972   0.06280   0.01025   1.000
    O176    O    0.61364   0.46972   0.02216   1.000
    O177    O    0.55245   0.14392   0.02216   1.000
    O178    O    0.47333   0.06280   0.01025   1.000
    O179    O    0.87825   0.40853   0.02217   1.000
    O180    O    0.61808   0.20942   0.02673   1.000
    O181    O    0.81731   0.40865   0.02673   1.000
    O182    O    0.61808   0.40865   0.02673   1.000
    O183    O    0.74628   0.28261   0.02889   1.000
    O184    O    0.56523   0.28262   0.02889   1.000
    O185    O    0.74627   0.46366   0.02889   1.000
    O186    O    0.75145   0.34318   0.02966   1.000
    O187    O    0.75145   0.40826   0.02966   1.000
    O188    O    0.62141   0.34318   0.02966   1.000
    O189    O    0.68649   0.40826   0.02966   1.000
    O190    O    0.68649   0.27822   0.02966   1.000
    O191    O    0.62141   0.27822   0.02966   1.000
    O192    O    0.61363   0.02217   0.14391   1.000
    O193    O    0.59971   0.01025   0.06279   1.000
    O194    O    0.61363   0.59147   0.14392   1.000
    O195    O    0.12176   0.53028   0.14392   1.000
    O196    O    0.12175   0.59146   0.14392   1.000
    O197    O    0.55244   0.53028   0.14392   1.000
    O198    O    0.55245   0.02217   0.14392   1.000
    O199    O    0.47333   0.01026   0.06279   1.000
    O200    O    0.18269   0.59134   0.20942   1.000
    O201    O    0.61807   0.02673   0.20942   1.000
    O202    O    0.61807   0.59134   0.20942   1.000
    O203    O    0.24855   0.65681   0.27823   1.000
    O204    O    0.24855   0.59174   0.27823   1.000
    O205    O    0.62140   0.59174   0.27823   1.000
    O206    O    0.68648   0.65681   0.27823   1.000
    O207    O    0.62140   0.02967   0.27823   1.000
    O208    O    0.68648   0.02967   0.27823   1.000
    O209    O    0.74627   0.02889   0.28262   1.000
    O210    O    0.56523   0.02890   0.28262   1.000
    O211    O    0.25373   0.53634   0.28262   1.000
    O212    O    0.56523   0.53634   0.28262   1.000
    O213    O    0.25372   0.71738   0.28262   1.000
    O214    O    0.74627   0.71738   0.28262   1.000
    O215    O    0.31351   0.72177   0.34318   1.000
    O216    O    0.62140   0.59174   0.34318   1.000
    O217    O    0.62140   0.02966   0.34318   1.000
    O218    O    0.75144   0.72177   0.34318   1.000
    O219    O    0.75144   0.02966   0.34318   1.000
    O220    O    0.31351   0.59174   0.34318   1.000
    O221    O    0.55245   0.53028   0.40853   1.000
    O222    O    0.47333   0.46308   0.41053   1.000
    O223    O    0.38637   0.53028   0.40853   1.000
    O224    O    0.40029   0.46308   0.41053   1.000
    O225    O    0.87824   0.85608   0.40853   1.000
    O226    O    0.94745   0.93720   0.41053   1.000
    O227    O    0.38636   0.85608   0.40853   1.000
    O228    O    0.40029   0.93721   0.41053   1.000
    O229    O    0.87824   0.02217   0.40853   1.000
    O230    O    0.94745   0.01025   0.41053   1.000
    O231    O    0.55245   0.02217   0.40853   1.000
    O232    O    0.47334   0.01026   0.41054   1.000
    O233    O    0.68648   0.02966   0.40826   1.000
    O234    O    0.61807   0.02673   0.40865   1.000
    O235    O    0.37859   0.65681   0.40826   1.000
    O236    O    0.38192   0.59134   0.40865   1.000
    O237    O    0.68648   0.65681   0.40826   1.000
    O238    O    0.61807   0.59134   0.40865   1.000
    O239    O    0.75144   0.02966   0.40826   1.000
    O240    O    0.81730   0.02673   0.40865   1.000
    O241    O    0.75144   0.72177   0.40826   1.000
    O242    O    0.81730   0.79057   0.40865   1.000
    O243    O    0.37859   0.72177   0.40826   1.000
    O244    O    0.38192   0.79057   0.40865   1.000
    O245    O    0.74627   0.71738   0.46366   1.000
    O246    O    0.43476   0.71738   0.46366   1.000
    O247    O    0.74628   0.02890   0.46366   1.000
    O248    O    0.87825   0.02217   0.46972   1.000
    O249    O    0.87825   0.85608   0.46972   1.000
    O250    O    0.44754   0.59146   0.46972   1.000
    O251    O    0.61363   0.02217   0.46972   1.000
    O252    O    0.61363   0.59147   0.46972   1.000
    O253    O    0.44754   0.85608   0.46971   1.000
    O254    O    0.05254   0.06279   0.46307   1.000
    O255    O    0.05254   0.98974   0.46307   1.000
    O256    O    0.47333   0.41053   0.46307   1.000
    O257    O    0.40028   0.41053   0.46308   1.000
    O258    O    0.40029   0.98975   0.46307   1.000
    O259    O    0.47334   0.06280   0.46308   1.000
    O260    O    0.12175   0.14391   0.53028   1.000
    O261    O    0.12175   0.97783   0.53028   1.000
    O262    O    0.55245   0.40853   0.53028   1.000
    O263    O    0.38637   0.97783   0.53028   1.000
    O264    O    0.55245   0.14392   0.53028   1.000
    O265    O    0.38636   0.40853   0.53028   1.000
    O266    O    0.25372   0.97110   0.53633   1.000
    O267    O    0.25372   0.28261   0.53633   1.000
    O268    O    0.56523   0.28261   0.53634   1.000
    O269    O    0.52666   0.93720   0.53692   1.000
    O270    O    0.94746   0.93720   0.53692   1.000
    O271    O    0.59971   0.01024   0.53692   1.000
    O272    O    0.94746   0.01026   0.53692   1.000
    O273    O    0.52666   0.58946   0.53692   1.000
    O274    O    0.59971   0.58946   0.53692   1.000
    O275    O    0.52666   0.98974   0.58946   1.000
    O276    O    0.59971   0.06278   0.58946   1.000
    O277    O    0.05255   0.98975   0.58946   1.000
    O278    O    0.05255   0.06280   0.58946   1.000
    O279    O    0.52667   0.53692   0.58946   1.000
    O280    O    0.59971   0.53692   0.58946   1.000
    O281    O    0.61808   0.40865   0.59134   1.000
    O282    O    0.61363   0.46971   0.59147   1.000
    O283    O    0.38192   0.40865   0.59134   1.000
    O284    O    0.44755   0.46971   0.59147   1.000
    O285    O    0.38192   0.97327   0.59134   1.000
    O286    O    0.44754   0.97783   0.59147   1.000
    O287    O    0.18270   0.97327   0.59134   1.000
    O288    O    0.12176   0.97783   0.59147   1.000
    O289    O    0.18269   0.20942   0.59134   1.000
    O290    O    0.12176   0.14392   0.59147   1.000
    O291    O    0.61808   0.20942   0.59134   1.000
    O292    O    0.61363   0.14391   0.59147   1.000
    O293    O    0.31352   0.97033   0.59173   1.000
    O294    O    0.24856   0.97033   0.59173   1.000
    O295    O    0.31352   0.34318   0.59173   1.000
    O296    O    0.24856   0.27822   0.59173   1.000
    O297    O    0.62141   0.34318   0.59173   1.000
    O298    O    0.62141   0.27822   0.59173   1.000
    O299    O    0.68648   0.40826   0.65681   1.000
    O300    O    0.37860   0.40826   0.65681   1.000
    O301    O    0.24856   0.27822   0.65681   1.000
    O302    O    0.68649   0.27822   0.65681   1.000
    O303    O    0.37860   0.97033   0.65681   1.000
    O304    O    0.24856   0.97033   0.65681   1.000
    O305    O    0.25372   0.28261   0.71738   1.000
    O306    O    0.31352   0.34318   0.72178   1.000
    O307    O    0.43476   0.46366   0.71738   1.000
    O308    O    0.37859   0.40826   0.72178   1.000
    O309    O    0.43476   0.97110   0.71738   1.000
    O310    O    0.37860   0.97033   0.72177   1.000
    O311    O    0.74627   0.46365   0.71738   1.000
    O312    O    0.75144   0.40826   0.72178   1.000
    O313    O    0.74628   0.28261   0.71738   1.000
    O314    O    0.75145   0.34318   0.72178   1.000
    O315    O    0.25373   0.97111   0.71738   1.000
    O316    O    0.31352   0.97033   0.72177   1.000
    O317    O    0.38192   0.97327   0.79057   1.000
    O318    O    0.81731   0.40865   0.79058   1.000
    O319    O    0.38192   0.40865   0.79058   1.000
    O320    O    0.44755   0.97783   0.85608   1.000
    O321    O    0.38637   0.97783   0.85608   1.000
    O322    O    0.38636   0.40853   0.85608   1.000
    O323    O    0.44755   0.46972   0.85608   1.000
    O324    O    0.87824   0.46971   0.85608   1.000
    O325    O    0.87825   0.40853   0.85608   1.000
    O326    O    0.52667   0.98974   0.93720   1.000
    O327    O    0.40028   0.98975   0.93721   1.000
    O328    O    0.37859   0.72177   0.97033   1.000
    O329    O    0.37859   0.65681   0.97033   1.000
    O330    O    0.43476   0.71738   0.97111   1.000
    O331    O    0.24855   0.65681   0.97033   1.000
    O332    O    0.31351   0.72177   0.97033   1.000
    O333    O    0.25372   0.71738   0.97111   1.000
    O334    O    0.24855   0.59173   0.97033   1.000
    O335    O    0.31351   0.59173   0.97033   1.000
    O336    O    0.25372   0.53634   0.97111   1.000
    O337    O    0.18269   0.59134   0.97327   1.000
    O338    O    0.38192   0.79057   0.97327   1.000
    O339    O    0.38192   0.59134   0.97327   1.000
    O340    O    0.12175   0.59146   0.97783   1.000
    O341    O    0.12176   0.53028   0.97783   1.000
    O342    O    0.44755   0.85608   0.97783   1.000
    O343    O    0.38636   0.85608   0.97783   1.000
    O344    O    0.38636   0.53028   0.97783   1.000
    O345    O    0.44755   0.59147   0.97783   1.000
    O346    O    0.52667   0.93720   0.98975   1.000
    O347    O    0.40028   0.93720   0.98975   1.000
    O348    O    0.00000   0.00000   0.50000   1.000
    O349    O    0.00000   0.50000   0.00000   1.000
    O350    O    0.50000   0.50000   0.00000   1.000
    O351    O    0.50000   0.00000   0.50000   1.000
    O352    O    0.50000   0.00000   0.00000   1.000
    O353    O    0.50000   0.50000   0.50000   1.000
loop_
    _geom_bond_atom_site_label_1
    _geom_bond_atom_site_label_2
    _geom_bond_distance
    _geom_bond_site_symmetry_2
    _ccdc_geom_bond_type
    C8     O156      0.96951      .   S
    C136   O156      0.96951      .   S
    C8     O157      0.96951      .   S
    C113   O157      0.96951      .   S
    C8     O158      0.96951  1_554   S
    C131   O158      0.96951      .   S
    C8     O159      0.96951  1_554   S
    C154   O159      0.96951      .   S
    C1     O160      0.96942      .   S
    C135   O160      0.96942      .   S
    C1     O161      0.96949  1_655   S
    C110   O161      0.96949      .   S
    C1     O162      0.96949  1_554   S
    C123   O162      0.96949      .   S
    C1     O163      0.96949  1_654   S
    C146   O163      0.96949      .   S
    C2     O164      0.96951      .   S
    C130   O164      0.96951      .   S
    C2     O165      0.96951      .   S
    C155   O165      0.96951      .   S
    C2     O166      0.96951  1_554   S
    C137   O166      0.96951      .   S
    C2     O167      0.96951  1_554   S
    C112   O167      0.96951      .   S
    C7     O168      0.96949  1_455   S
    C122   O168      0.96949      .   S
    C7     O169      0.96949      .   S
    C147   O169      0.96949      .   S
    C7     O170      0.96949  1_454   S
    C134   O170      0.96949      .   S
    C7     O171      0.96942  1_554   S
    C111   O171      0.96942      .   S
    C136   O172      0.63732      .   S
    C82    O172      0.63732      .   S
    C135   O173      0.63732      .   S
    C74    O173      0.63732      .   S
    C141   O174      0.63741      .   S
    C78    O174      0.63741      .   S
    C141   O175      0.96950      .   S
    C4     O175      0.96950      .   S
    C130   O176      0.63740      .   S
    C82    O176      0.63740      .   S
    C126   O177      0.63732      .   S
    C78    O177      0.63732      .   S
    C126   O178      0.96951      .   S
    C10    O178      0.96951      .   S
    C122   O179      0.63737      .   S
    C74    O179      0.63737      .   S
    C78    O180      0.74542      .   S
    C102   O180      0.74542      .   S
    C74    O181      0.74534      .   S
    C98    O181      0.74534      .   S
    C82    O182      0.74543      .   S
    C106   O182      0.74543      .   S
    C26    O183      0.54643      .   S
    C50    O183      0.54643      .   S
    C30    O184      0.54650      .   S
    C54    O184      0.54650      .   S
    C34    O185      0.54634      .   S
    C58    O185      0.54634      .   S
    C98    O186      0.69804      .   S
    C50    O186      0.69804      .   S
    C98    O187      0.69804      .   S
    C58    O187      0.69804      .   S
    C106   O188      0.69804      .   S
    C54    O188      0.69804      .   S
    C106   O189      0.69804      .   S
    C58    O189      0.69804      .   S
    C102   O190      0.69804      .   S
    C50    O190      0.69804      .   S
    C102   O191      0.69804      .   S
    C54    O191      0.69804      .   S
    C116   O192      0.63740      .   S
    C68    O192      0.63740      .   S
    C116   O193      0.96943      .   S
    C4     O193      0.96943      .   S
    C155   O194      0.63732      .   S
    C65    O194      0.63732      .   S
    C147   O195      0.63732      .   S
    C62    O195      0.63732      .   S
    C110   O196      0.63734      .   S
    C62    O196      0.63734      .   S
    C113   O197      0.63740      .   S
    C65    O197      0.63740      .   S
    C151   O198      0.63737      .   S
    C68    O198      0.63737      .   S
    C151   O199      0.96950      .   S
    C10    O199      0.96950      .   S
    C62    O200      0.74540      .   S
    C86    O200      0.74540      .   S
    C68    O201      0.74543      .   S
    C92    O201      0.74543      .   S
    C65    O202      0.74543      .   S
    C89    O202      0.74543      .   S
    C86    O203      0.69804      .   S
    C38    O203      0.69804      .   S
    C86    O204      0.69802      .   S
    C46    O204      0.69802      .   S
    C89    O205      0.69796      .   S
    C41    O205      0.69796      .   S
    C89    O206      0.69804      .   S
    C36    O206      0.69804      .   S
    C92    O207      0.69804      .   S
    C43    O207      0.69804      .   S
    C92    O208      0.69804      .   S
    C44    O208      0.69804      .   S
    C20    O209      0.54654      .   S
    C44    O209      0.54654      .   S
    C19    O210      0.54635      .   S
    C43    O210      0.54635      .   S
    C22    O211      0.54648      .   S
    C46    O211      0.54648      .   S
    C17    O212      0.54645      .   S
    C41    O212      0.54645      .   S
    C14    O213      0.54648      .   S
    C38    O213      0.54648      .   S
    C12    O214      0.54645      .   S
    C36    O214      0.54645      .   S
    C38    O215      0.69804      .   S
    C90    O215      0.69804      .   S
    C41    O216      0.69804      .   S
    C95    O216      0.69804      .   S
    C43    O217      0.69804      .   S
    C91    O217      0.69804      .   S
    C36    O218      0.69804      .   S
    C84    O218      0.69804      .   S
    C44    O219      0.69804      .   S
    C85    O219      0.69804      .   S
    C46    O220      0.69801      .   S
    C94    O220      0.69801      .   S
    C149   O221      0.63732      .   S
    C71    O221      0.63732      .   S
    C149   O222      0.96951      .   S
    C11    O222      0.96951      .   S
    C118   O223      0.63735      .   S
    C70    O223      0.63735      .   S
    C118   O224      0.96944      .   S
    C11    O224      0.96944      .   S
    C108   O225      0.63732      .   S
    C60    O225      0.63732      .   S
    C108   O226      0.96950      .   S
    C0     O226      0.96950  1_445   S
    C153   O227      0.63740      .   S
    C66    O227      0.63740      .   S
    C153   O228      0.96949      .   S
    C9     O228      0.96949  1_545   S
    C145   O229      0.63733      .   S
    C61    O229      0.63733      .   S
    C145   O230      0.96951      .   S
    C0     O230      0.96951  1_455   S
    C115   O231      0.63729      .   S
    C67    O231      0.63729      .   S
    C115   O232      0.96943      .   S
    C9     O232      0.96943      .   S
    C91    O233      0.69804      .   S
    C37    O233      0.69804      .   S
    C91    O234      0.74535      .   S
    C67    O234      0.74535      .   S
    C94    O235      0.69804      .   S
    C42    O235      0.69804      .   S
    C94    O236      0.74540      .   S
    C70    O236      0.74540      .   S
    C95    O237      0.69804      .   S
    C47    O237      0.69804      .   S
    C95    O238      0.74534      .   S
    C71    O238      0.74534      .   S
    C85    O239      0.69804      .   S
    C37    O239      0.69804      .   S
    C85    O240      0.74542      .   S
    C61    O240      0.74542      .   S
    C84    O241      0.69804      .   S
    C47    O241      0.69804      .   S
    C84    O242      0.74542      .   S
    C60    O242      0.74542      .   S
    C90    O243      0.69804      .   S
    C42    O243      0.69804      .   S
    C90    O244      0.74540      .   S
    C66    O244      0.74540      .   S
    C47    O245      0.54646      .   S
    C23    O245      0.54646      .   S
    C42    O246      0.54640      .   S
    C18    O246      0.54640      .   S
    C37    O247      0.54643      .   S
    C13    O247      0.54643      .   S
    C61    O248      0.63738      .   S
    C109   O248      0.63738      .   S
    C60    O249      0.63738      .   S
    C144   O249      0.63738      .   S
    C70    O250      0.63734      .   S
    C148   O250      0.63734      .   S
    C67    O251      0.63740      .   S
    C152   O251      0.63740      .   S
    C71    O252      0.63740      .   S
    C119   O252      0.63740      .   S
    C66    O253      0.63729      .   S
    C114   O253      0.63729      .   S
    C0     O254      0.96941      .   S
    C120   O254      0.96941      .   S
    C0     O255      0.96949  1_545   S
    C133   O255      0.96949      .   S
    C11    O256      0.96949      .   S
    C124   O256      0.96949      .   S
    C11    O257      0.96951      .   S
    C143   O257      0.96951      .   S
    C9     O258      0.96949  1_545   S
    C128   O258      0.96949      .   S
    C9     O259      0.96943      .   S
    C138   O259      0.96943      .   S
    C120   O260      0.63737      .   S
    C72    O260      0.63737      .   S
    C133   O261      0.63738      .   S
    C73    O261      0.63738      .   S
    C124   O262      0.63737      .   S
    C76    O262      0.63737      .   S
    C128   O263      0.63740      .   S
    C80    O263      0.63740      .   S
    C138   O264      0.63729      .   S
    C81    O264      0.63729      .   S
    C143   O265      0.63733      .   S
    C77    O265      0.63733      .   S
    C32    O266      0.54643      .   S
    C56    O266      0.54643      .   S
    C24    O267      0.54643      .   S
    C48    O267      0.54643      .   S
    C28    O268      0.54643      .   S
    C52    O268      0.54643      .   S
    C114   O269      0.96943      .   S
    C3     O269      0.96943      .   S
    C144   O270      0.96949      .   S
    C6     O270      0.96949  1_445   S
    C152   O271      0.96949      .   S
    C3     O271      0.96949  1_565   S
    C109   O272      0.96949      .   S
    C6     O272      0.96949  1_455   S
    C148   O273      0.96948      .   S
    C5     O273      0.96948      .   S
    C119   O274      0.96943      .   S
    C5     O274      0.96943      .   S
    C3     O275      0.96951      .   S
    C139   O275      0.96951      .   S
    C3     O276      0.96949  1_565   S
    C129   O276      0.96949      .   S
    C6     O277      0.96951  1_545   S
    C121   O277      0.96951      .   S
    C6     O278      0.96950      .   S
    C132   O278      0.96950      .   S
    C5     O279      0.96951      .   S
    C125   O279      0.96951      .   S
    C5     O280      0.96944      .   S
    C142   O280      0.96944      .   S
    C76    O281      0.74540      .   S
    C100   O281      0.74540      .   S
    C76    O282      0.63735      .   S
    C142   O282      0.63735      .   S
    C77    O283      0.74534      .   S
    C101   O283      0.74534      .   S
    C77    O284      0.63732      .   S
    C125   O284      0.63732      .   S
    C80    O285      0.74535      .   S
    C104   O285      0.74535      .   S
    C80    O286      0.63730      .   S
    C139   O286      0.63730      .   S
    C73    O287      0.74542      .   S
    C97    O287      0.74542      .   S
    C73    O288      0.63733      .   S
    C121   O288      0.63733      .   S
    C72    O289      0.74542      .   S
    C96    O289      0.74542      .   S
    C72    O290      0.63732      .   S
    C132   O290      0.63732      .   S
    C81    O291      0.74540      .   S
    C105   O291      0.74540      .   S
    C81    O292      0.63740      .   S
    C129   O292      0.63740      .   S
    C56    O293      0.69804      .   S
    C104   O293      0.69804      .   S
    C56    O294      0.69804      .   S
    C97    O294      0.69804      .   S
    C48    O295      0.69804      .   S
    C101   O295      0.69804      .   S
    C48    O296      0.69804      .   S
    C96    O296      0.69804      .   S
    C52    O297      0.69804      .   S
    C100   O297      0.69804      .   S
    C52    O298      0.69804      .   S
    C105   O298      0.69804      .   S
    C100   O299      0.69801      .   S
    C51    O299      0.69801      .   S
    C101   O300      0.69804      .   S
    C53    O300      0.69804      .   S
    C96    O301      0.69804      .   S
    C59    O301      0.69804      .   S
    C105   O302      0.69804      .   S
    C57    O302      0.69804      .   S
    C104   O303      0.69804      .   S
    C55    O303      0.69804      .   S
    C97    O304      0.69804      .   S
    C49    O304      0.69804      .   S
    C59    O305      0.54659      .   S
    C35    O305      0.54659      .   S
    C59    O306      0.69804      .   S
    C107   O306      0.69804      .   S
    C53    O307      0.54650      .   S
    C29    O307      0.54650      .   S
    C53    O308      0.69804      .   S
    C107   O308      0.69804      .   S
    C55    O309      0.54635      .   S
    C31    O309      0.54635      .   S
    C55    O310      0.69804      .   S
    C103   O310      0.69804      .   S
    C51    O311      0.54648      .   S
    C27    O311      0.54648      .   S
    C51    O312      0.69804      .   S
    C99    O312      0.69804      .   S
    C57    O313      0.54648      .   S
    C33    O313      0.54648      .   S
    C57    O314      0.69807      .   S
    C99    O314      0.69807      .   S
    C49    O315      0.54654      .   S
    C25    O315      0.54654      .   S
    C49    O316      0.69804      .   S
    C103   O316      0.69804      .   S
    C103   O317      0.74543      .   S
    C79    O317      0.74543      .   S
    C99    O318      0.74534      .   S
    C75    O318      0.74534      .   S
    C107   O319      0.74535      .   S
    C83    O319      0.74535      .   S
    C79    O320      0.63737      .   S
    C127   O320      0.63737      .   S
    C79    O321      0.63740      .   S
    C140   O321      0.63740      .   S
    C83    O322      0.63732      .   S
    C131   O322      0.63732      .   S
    C83    O323      0.63740      .   S
    C137   O323      0.63740      .   S
    C75    O324      0.63732      .   S
    C123   O324      0.63732      .   S
    C75    O325      0.63734      .   S
    C134   O325      0.63734      .   S
    C127   O326      0.96950      .   S
    C4     O326      0.96950  1_544   S
    C140   O327      0.96943      .   S
    C10    O327      0.96943  1_544   S
    C40    O328      0.69804      .   S
    C93    O328      0.69804      .   S
    C40    O329      0.69804      .   S
    C88    O329      0.69804      .   S
    C40    O330      0.54645      .   S
    C16    O330      0.54645      .   S
    C45    O331      0.69804      .   S
    C87    O331      0.69804      .   S
    C45    O332      0.69804      .   S
    C93    O332      0.69804      .   S
    C45    O333      0.54646      .   S
    C21    O333      0.54646      .   S
    C39    O334      0.69804      .   S
    C87    O334      0.69804      .   S
    C39    O335      0.69804      .   S
    C88    O335      0.69804      .   S
    C39    O336      0.54637      .   S
    C15    O336      0.54637      .   S
    C87    O337      0.74534      .   S
    C63    O337      0.74534      .   S
    C93    O338      0.74542      .   S
    C69    O338      0.74542      .   S
    C88    O339      0.74543      .   S
    C64    O339      0.74543      .   S
    C63    O340      0.63737      .   S
    C146   O340      0.63737      .   S
    C63    O341      0.63732      .   S
    C111   O341      0.63732      .   S
    C69    O342      0.63732      .   S
    C150   O342      0.63732      .   S
    C69    O343      0.63741      .   S
    C117   O343      0.63741      .   S
    C64    O344      0.63732      .   S
    C154   O344      0.63732      .   S
    C64    O345      0.63732      .   S
    C112   O345      0.63732      .   S
    C150   O346      0.96951      .   S
    C4     O346      0.96951  1_544   S
    C117   O347      0.96950      .   S
    C10    O347      0.96950  1_544   S
    C0     O348      1.21239      .   S
    C6     O348      1.21239      .   S
    C1     O349      1.21230  1_655   S
    C7     O349      1.21230      .   S
    C2     O350      1.21238      .   S
    C8     O350      1.21238      .   S
    C3     O351      1.21239  1_565   S
    C9     O351      1.21239      .   S
    C4     O352      1.21239      .   S
    C10    O352      1.21239      .   S
    C5     O353      1.21239      .   S
    C11    O353      1.21239      .   S
