# CIF file generated by openbabel 2.4.90, see http://openbabel.sf.net
data_I
_chemical_name_common 'Zr3H26(C15O8)2'
_cell_length_a 14.76
_cell_length_b 14.768
_cell_length_c 14.7681
_cell_angle_alpha 119.862
_cell_angle_beta 119.897
_cell_angle_gamma 90.143
_space_group_name_H-M_alt 'P 1'
_space_group_name_Hall 'P 1'
loop_
    _symmetry_equiv_pos_as_xyz
    x,y,z
loop_
    _atom_site_label
    _atom_site_type_symbol
    _atom_site_fract_x
    _atom_site_fract_y
    _atom_site_fract_z
    _atom_site_occupancy
    Zr0     Zr   0.10953   0.12167   0.98732   1.000
    Zr1     Zr   0.87102   0.88213   0.74782   1.000
    Zr2     Zr   0.87258   0.11833   0.99071   1.000
    Zr3     Zr   0.11437   0.11753   0.22665   1.000
    Zr4     Zr   0.11279   0.88109   0.98312   1.000
    Zr5     Zr   0.87625   0.87842   0.98790   1.000
    Zr6     Zr   0.53260   0.02049   0.75924   1.000
    Zr7     Zr   0.99758   0.96010   0.94932   1.000
    Zr8     Zr   0.78104   0.10166   0.34449   1.000
    Zr9     Zr   0.97039   0.89608   0.72029   1.000
    Zr10    Zr   0.70288   0.81056   0.38102   1.000
    Zr11    Zr   0.96078   0.90042   0.97431   1.000
    H12     H    0.90735   0.83093   0.45317   1.000
    H13     H    0.43608   0.37272   0.52360   1.000
    H14     H    0.16317   0.63409   0.70597   1.000
    H15     H    0.35303   0.07802   0.51815   1.000
    H16     H    0.61974   0.90632   0.45314   1.000
    H17     H    0.36220   0.83256   0.91250   1.000
    H18     H    0.89454   0.09613   0.80162   1.000
    H19     H    0.13211   0.40869   0.99191   1.000
    H20     H    0.90124   0.09010   0.17789   1.000
    H21     H    0.27503   0.09536   0.17283   1.000
    H22     H    0.90032   0.71810   0.79734   1.000
    H23     H    0.43616   0.11376   0.71772   1.000
    H24     H    0.58136   0.17950   0.80582   1.000
    H25     H    0.53332   0.04975   0.77040   1.000
    H26     H    0.37569   0.55238   0.25412   1.000
    H27     H    0.25993   0.45533   0.20359   1.000
    H28     H    0.35366   0.40738   0.16695   1.000
    H29     H    0.45665   0.71919   0.85532   1.000
    H30     H    0.83259   0.37884   0.26540   1.000
    H31     H    0.60218   0.78719   0.97513   1.000
    H32     H    0.54662   0.75566   0.82246   1.000
    H33     H    0.13256   0.27620   0.72441   1.000
    H34     H    0.18762   0.21644   0.81151   1.000
    H35     H    0.05952   0.23642   0.77227   1.000
    H36     H    0.27652   0.54260   0.66236   1.000
    H37     H    0.23477   0.44723   0.50217   1.000
    H38     H    0.21223   0.39784   0.57781   1.000
    H39     H    0.77169   0.48473   0.00935   1.000
    H40     H    0.85118   0.42458   0.08822   1.000
    H41     H    0.76180   0.34315   0.92076   1.000
    H42     H    0.72059   0.47285   0.30481   1.000
    H43     H    0.75764   0.56147   0.46377   1.000
    H44     H    0.78605   0.61874   0.39772   1.000
    H45     H    0.59747   0.45716   0.72217   1.000
    H46     H    0.71533   0.55037   0.77158   1.000
    H47     H    0.62421   0.60297   0.81057   1.000
    H48     H    0.81193   0.77352   0.16717   1.000
    H49     H    0.53659   0.86826   0.25388   1.000
    H50     H    0.44321   0.93554   0.20252   1.000
    H51     H    0.39062   0.80602   0.16476   1.000
    H52     H    0.87244   0.71485   0.25466   1.000
    H53     H    0.94155   0.75834   0.20548   1.000
    H54     H    0.22701   0.52836   0.99225   1.000
    H55     H    0.23004   0.66843   0.07325   1.000
    H56     H    0.14633   0.58233   0.90562   1.000
    H57     H    0.36793   0.19980   0.97194   1.000
    H58     H    0.51405   0.26828   0.08675   1.000
    H59     H    0.42924   0.23623   0.12746   1.000
    H60     H    0.85997   0.59799   0.99680   1.000
    H61     H    0.09268   0.16075   0.52484   1.000
    H62     H    0.53947   0.63720   0.45325   1.000
    H63     H    0.61072   0.15655   0.03666   1.000
    H64     H    0.80257   0.02387   0.82193   1.000
    H65     H    0.47489   0.39974   0.98370   1.000
    H66     H    0.63981   0.44693   0.91460   1.000
    H67     H    0.23105   0.88835   0.20045   1.000
    H68     H    0.80582   0.11424   0.26326   1.000
    H69     H    0.70134   0.54414   0.85277   1.000
    H70     H    0.79357   0.08882   0.33134   1.000
    H71     H    0.51021   0.61414   0.04127   1.000
    H72     H    0.36649   0.63882   0.30006   1.000
    H73     H    0.36064   0.51435   0.73487   1.000
    H74     H    0.34309   0.53570   0.95844   1.000
    H75     H    0.02070   0.86428   0.08660   1.000
    H76     H    0.19426   0.13396   0.64376   1.000
    H77     H    0.95236   0.27167   0.33209   1.000
    H78     H    0.71961   0.98271   0.84851   1.000
    H79     H    0.35552   0.54379   0.27916   1.000
    H80     H    0.63857   0.68019   0.61264   1.000
    H81     H    0.52034   0.22184   0.70812   1.000
    H82     H    0.22576   0.21181   0.92888   1.000
    H83     H    0.96958   0.84671   0.28620   1.000
    H84     H    0.24476   0.38566   0.63649   1.000
    H85     H    0.65815   0.98580   0.05245   1.000
    H86     H    0.44016   0.75706   0.02175   1.000
    H87     H    0.83073   0.04282   0.22502   1.000
    H88     H    0.42614   0.02440   0.07097   1.000
    H89     H    0.18745   0.24262   0.05175   1.000
    H90     H    0.90933   0.75059   0.52635   1.000
    H91     H    0.27597   0.84649   0.24692   1.000
    H92     H    0.67349   0.52319   0.39247   1.000
    H93     H    0.56425   0.54648   0.18329   1.000
    H94     H    0.39714   0.55328   0.80077   1.000
    H95     H    0.65663   0.40164   0.73561   1.000
    H96     H    0.97505   0.91430   0.36281   1.000
    H97     H    0.46265   0.77625   0.80412   1.000
    H98     H    0.77389   0.24798   0.36055   1.000
    H99     H    0.49736   0.08383   0.08066   1.000
    H100    H    0.34097   0.26688   0.68070   1.000
    H101    H    0.00914   0.17003   0.35988   1.000
    H102    H    0.05434   0.73913   0.16637   1.000
    H103    H    0.85171   0.84583   0.82281   1.000
    H104    H    0.06121   0.02970   0.69812   1.000
    H105    H    0.94355   0.91201   0.52393   1.000
    H106    H    0.81029   0.17491   0.62111   1.000
    H107    H    0.53866   0.40160   0.62274   1.000
    H108    H    0.33544   0.47915   0.42080   1.000
    H109    H    0.42844   0.89268   0.23395   1.000
    H110    H    0.30739   0.39058   0.76176   1.000
    H111    H    0.60273   0.26813   0.90436   1.000
    H112    H    0.04568   0.38999   0.78795   1.000
    H113    H    0.97406   0.97124   0.89668   1.000
    H114    H    0.68318   0.36139   0.68933   1.000
    H115    H    0.16542   0.13401   0.64593   1.000
    C116    C    0.78379   0.54616   0.40109   1.000
    C117    C    0.17681   0.58291   0.99068   1.000
    C118    C    0.89010   0.77821   0.24186   1.000
    C119    C    0.62747   0.53363   0.73530   1.000
    C120    C    0.44248   0.20626   0.05190   1.000
    C121    C    0.99426   0.00382   0.68567   1.000
    C122    C    0.68081   0.99614   0.68670   1.000
    C123    C    0.99095   0.30867   0.99681   1.000
    C124    C    0.99973   0.30677   0.29574   1.000
    C125    C    0.29161   0.00063   0.97646   1.000
    C126    C    0.00050   0.69733   0.99050   1.000
    C127    C    0.00034   0.98959   0.29022   1.000
    C128    C    0.29592   0.99371   0.28650   1.000
    C129    C    0.68647   0.69736   0.68578   1.000
    C130    C    0.68561   0.99134   0.98132   1.000
    C131    C    0.29188   0.30953   0.28933   1.000
    C132    C    0.99341   0.70173   0.67748   1.000
    C133    C    0.99924   0.00407   0.58729   1.000
    C134    C    0.57825   0.99485   0.58578   1.000
    C135    C    0.99027   0.40998   0.99724   1.000
    C136    C    0.00385   0.41159   0.39699   1.000
    C137    C    0.39234   0.00155   0.97569   1.000
    C138    C    0.00280   0.59768   0.99340   1.000
    C139    C    0.99973   0.98781   0.39016   1.000
    C140    C    0.39517   0.99037   0.38598   1.000
    C141    C    0.58500   0.59683   0.58709   1.000
    C142    C    0.58118   0.98786   0.97452   1.000
    C143    C    0.39090   0.41251   0.38932   1.000
    C144    C    0.99163   0.60065   0.57470   1.000
    C145    C    0.94740   0.90298   0.46698   1.000
    C146    C    0.50308   0.04475   0.60773   1.000
    C147    C    0.07301   0.45203   0.99366   1.000
    C148    C    0.90493   0.43636   0.36312   1.000
    C149    C    0.46147   0.09631   0.01114   1.000
    C150    C    0.45987   0.88479   0.23990   1.000
    C151    C    0.91980   0.55537   0.99649   1.000
    C152    C    0.05247   0.08870   0.51088   1.000
    C153    C    0.46985   0.93966   0.36368   1.000
    C154    C    0.51549   0.57756   0.46674   1.000
    C155    C    0.55463   0.08575   0.00923   1.000
    C156    C    0.41794   0.48682   0.36563   1.000
    C157    C    0.89503   0.52940   0.44832   1.000
    C158    C    0.46005   0.43222   0.50997   1.000
    C159    C    0.09089   0.57658   0.60819   1.000
    C160    C    0.51113   0.89261   0.93723   1.000
    C161    C    0.08299   0.54542   0.99245   1.000
    C162    C    0.94596   0.89121   0.36630   1.000
    C163    C    0.41304   0.04084   0.50571   1.000
    C164    C    0.05409   0.10050   0.61168   1.000
    C165    C    0.55979   0.94351   0.46568   1.000
    C166    C    0.10084   0.48373   0.52279   1.000
    C167    C    0.41821   0.90326   0.93965   1.000
    C168    C    0.55779   0.52279   0.61105   1.000
    C169    C    0.91067   0.46281   0.99938   1.000
    C170    C    0.81871   0.42710   0.00478   1.000
    C171    C    0.21217   0.46734   0.56879   1.000
    C172    C    0.11131   0.21360   0.73648   1.000
    C173    C    0.52978   0.78250   0.89483   1.000
    C174    C    0.34803   0.47522   0.24107   1.000
    C175    C    0.51363   0.09953   0.73178   1.000
    C176    C    0.72229   0.83032   0.81137   1.000
    C177    C    0.67271   0.49806   0.65408   1.000
    C178    C    0.99707   0.11114   0.29427   1.000
    C179    C    0.51762   0.01231   0.58913   1.000
    C180    C    0.66117   0.71827   0.77640   1.000
    C181    C    0.13434   0.80370   0.37728   1.000
    C182    C    0.39876   0.84787   0.38785   1.000
    C183    C    0.13204   0.87957   0.61815   1.000
    C184    C    0.03690   0.44696   0.62813   1.000
    C185    C    0.59198   0.34936   0.20495   1.000
    C186    C    0.41708   0.11588   0.20135   1.000
    C187    C    0.70112   0.14497   0.31405   1.000
    C188    C    0.90395   0.05042   0.51721   1.000
    C189    C    0.04069   0.44033   0.22695   1.000
    C190    C    0.82760   0.45914   0.40480   1.000
    C191    C    0.05375   0.33636   0.44424   1.000
    C192    C    0.06016   0.28752   0.51520   1.000
    C193    C    0.23326   0.61414   0.41004   1.000
    C194    C    0.84584   0.64625   0.61851   1.000
    C195    C    0.57768   0.66286   0.35998   1.000
    C196    C    0.09418   0.40390   0.08531   1.000
    C197    C    0.30013   0.32898   0.95222   1.000
    C198    C    0.98618   0.35272   0.48385   1.000
    C199    C    0.75416   0.37181   0.65387   1.000
    C200    C    0.46716   0.29052   0.22799   1.000
    C201    C    0.06841   0.46252   0.73421   1.000
    C202    C    0.09136   0.41910   0.61102   1.000
    C203    C    0.07895   0.30030   0.93710   1.000
    C204    C    0.77475   0.26701   0.75105   1.000
    C205    C    0.71581   0.32145   0.64828   1.000
    C206    C    0.93171   0.37003   0.06350   1.000
    C207    C    0.46689   0.11253   0.92637   1.000
    C208    C    0.37867   0.69665   0.89036   1.000
    C209    C    0.60053   0.55277   0.10316   1.000
    C210    C    0.94263   0.80205   0.91691   1.000
    C211    C    0.09501   0.90029   0.91361   1.000
    C212    C    0.06160   0.67185   0.06915   1.000
    C213    C    0.10443   0.63317   0.40191   1.000
    C214    C    0.85000   0.24341   0.07419   1.000
    C215    C    0.34675   0.65709   0.71008   1.000
    C216    C    0.84878   0.11833   0.68229   1.000
    C217    C    0.62937   0.60210   0.50835   1.000
    C218    C    0.30641   0.51773   0.59774   1.000
    C219    C    0.48566   0.96124   0.95364   1.000
    C220    C    0.26277   0.11815   0.39174   1.000
    C221    C    0.72825   0.97157   0.68809   1.000
    C222    C    0.82589   0.24912   0.54511   1.000
    C223    C    0.19797   0.18673   0.36683   1.000
    C224    C    0.95036   0.74527   0.17388   1.000
    C225    C    0.83903   0.81694   0.09740   1.000
    C226    C    0.23343   0.05109   0.33740   1.000
    C227    C    0.51821   0.01889   0.78727   1.000
    C228    C    0.30421   0.64449   0.98977   1.000
    C229    C    0.84065   0.05150   0.16435   1.000
    C230    C    0.38875   0.48644   0.16751   1.000
    C231    C    0.13046   0.80357   0.03770   1.000
    C232    C    0.76527   0.88639   0.43547   1.000
    C233    C    0.19183   0.93479   0.71472   1.000
    C234    C    0.63242   0.75594   0.07562   1.000
    C235    C    0.08814   0.20548   0.55205   1.000
    O236    O    0.04201   0.14912   0.08852   1.000
    O237    O    0.04068   0.95225   0.88625   1.000
    O238    O    0.04480   0.94908   0.08540   1.000
    O239    O    0.06910   0.08104   0.80290   1.000
    O240    O    0.72229   0.92098   0.64840   1.000
    O241    O    0.91437   0.26630   0.99563   1.000
    O242    O    0.07406   0.26390   0.33125   1.000
    O243    O    0.25370   0.92284   0.97724   1.000
    O244    O    0.07447   0.73712   0.98657   1.000
    O245    O    0.92273   0.91436   0.17331   1.000
    O246    O    0.25833   0.07231   0.32612   1.000
    O247    O    0.72883   0.73706   0.80299   1.000
    O248    O    0.72802   0.91670   0.98432   1.000
    O249    O    0.25489   0.26793   0.32749   1.000
    O250    O    0.07146   0.74005   0.79345   1.000
    O251    O    0.25282   0.26804   0.17246   1.000
    O252    O    0.91659   0.74259   0.64339   1.000
    O253    O    0.72720   0.07181   0.98672   1.000
    O254    O    0.92252   0.73569   0.99027   1.000
    O255    O    0.07636   0.06844   0.32826   1.000
    O256    O    0.25544   0.91888   0.16917   1.000
    O257    O    0.91559   0.92684   0.64643   1.000
    O258    O    0.72244   0.07324   0.80361   1.000
    O259    O    0.91956   0.26530   0.17953   1.000
    O260    O    0.25082   0.07719   0.97810   1.000
    O261    O    0.72431   0.73669   0.64651   1.000
    O262    O    0.06809   0.26948   0.99539   1.000
    O263    O    0.92247   0.06868   0.85451   1.000
    O264    O    0.92760   0.06430   0.12388   1.000
    O265    O    0.19469   0.06794   0.11983   1.000
    O266    O    0.92636   0.79837   0.85078   1.000
    O267    O    0.84360   0.94945   0.88927   1.000
    O268    O    0.85444   0.84910   0.41320   1.000
    O269    O    0.10460   0.78397   0.36985   1.000
    O270    O    0.21332   0.16325   0.33043   1.000
    O271    O    0.30464   0.28626   0.15184   1.000
    O272    O    0.22003   0.29244   0.13654   1.000
    O273    O    0.92092   0.37636   0.74276   1.000
    O274    O    0.00371   0.39229   0.50897   1.000
    O275    O    0.02784   0.23610   0.72436   1.000
    O276    O    0.60702   0.58858   0.03823   1.000
    O277    O    0.57751   0.64228   0.53381   1.000
    O278    O    0.78217   0.64116   0.45105   1.000
    O279    O    0.66720   0.37517   0.83779   1.000
    O280    O    0.99116   0.39555   0.16655   1.000
    O281    O    0.67448   0.29834   0.86785   1.000
    O282    O    0.01227   0.22404   0.02653   1.000
    O283    O    0.38025   0.42721   0.84448   1.000
    O284    O    0.92760   0.38355   0.24967   1.000
    O285    O    0.40878   0.61461   0.93255   1.000
    O286    O    0.77836   0.65045   0.26247   1.000
    O287    O    0.11286   0.71365   0.08487   1.000
    O288    O    0.10211   0.53783   0.66121   1.000
    O289    O    0.75428   0.19800   0.60069   1.000
    O290    O    0.91532   0.38890   0.89751   1.000
    O291    O    0.89527   0.54553   0.72633   1.000
    O292    O    0.45545   0.44576   0.46953   1.000
    O293    O    0.38992   0.49234   0.79278   1.000
    O294    O    0.76390   0.33511   0.54463   1.000
    O295    O    0.76944   0.05780   0.33739   1.000
    O296    O    0.45849   0.29858   0.30054   1.000
    O297    O    0.81996   0.20583   0.93904   1.000
    O298    O    0.80852   0.21210   0.74468   1.000
    O299    O    0.84189   0.85417   0.25217   1.000
loop_
    _geom_bond_atom_site_label_1
    _geom_bond_atom_site_label_2
    _geom_bond_distance
    _geom_bond_site_symmetry_2
    _ccdc_geom_bond_type
    C170   H39       1.09681      .   S
    C170   C206      1.88080      .   S
    C170   H40       1.09843      .   S
    C170   C169      1.50766  1_554   S
    C155   C149      1.39686      .   S
    C155   H63       1.08734      .   S
    C155   C207      1.49516  1_554   S
    C155   C142      1.40404  1_544   S
    C149   H99       1.00764      .   S
    C149   C207      1.42455  1_554   S
    C149   C137      1.41575  1_554   S
    H86    C208      1.37886  1_554   S
    O282   O236      1.69281      .   S
    O282   Zr0       2.15623  1_554   S
    C231   O287      1.84817      .   S
    C231   Zr4       1.65508  1_554   S
    C231   O244      0.92309  1_554   S
    O276   C209      1.34332      .   S
    H89    O272      0.90605      .   S
    C120   H58       1.09702      .   S
    C120   C207      1.89621  1_554   S
    C120   H57       1.09831  1_554   S
    H85    C142      1.16097  1_554   S
    C206   O280      1.15056      .   S
    C206   O241      1.27671  1_554   S
    C212   O287      0.82908      .   S
    C212   H102      1.33916      .   S
    C212   C126      1.30251  1_554   S
    C212   C138      1.00582  1_554   S
    H88    C137      1.08133  1_554   S
    H55    C117      1.09802  1_554   S
    C214   O259      1.21824      .   S
    C214   O297      1.58160  1_554   S
    C214   Zr2       1.78544  1_554   S
    C196   C147      1.72393  1_554   S
    C196   C123      1.47700  1_454   S
    C196   C135      1.47659  1_454   S
    O238   H75       1.31196      .   S
    O238   Zr11      1.24065  1_454   S
    O236   Zr0       2.06752  1_554   S
    C225   O245      1.36281      .   S
    O265   H21       0.96927      .   S
    H59    C200      1.06971      .   S
    O272   O251      0.76209      .   S
    O271   O251      1.03098      .   S
    C229   H20       0.93297      .   S
    C229   H87       1.04202      .   S
    H51    C150      1.09874      .   S
    O280   C189      0.72634  1_655   S
    H48    O299      1.07002      .   S
    O256   H67       0.95853      .   S
    O256   C128      1.28000      .   S
    O245   C127      1.28036  1_655   S
    C224   H53       0.49291      .   S
    O259   C124      1.28292      .   S
    H50    C150      1.09751      .   S
    H27    C174      1.09647      .   S
    Zr3    O270      1.29271      .   S
    C200   O296      1.09007      .   S
    H109   C150      0.45422      .   S
    C150   H49       1.09682      .   S
    C174   H79       0.85099      .   S
    C118   O299      1.31517      .   S
    C118   H52       1.09693      .   S
    C118   H83       1.18195      .   S
    O286   Zr10      2.78077      .   S
    H68    Zr8       1.50537      .   S
    H30    C148      1.08761      .   S
    C128   O246      1.28377  1_565   S
    C131   O249      1.28176      .   S
    C127   C178      1.76764  1_465   S
    C127   O255      1.28227  1_565   S
    C127   C139      1.49365  1_455   S
    C178   O255      1.32388  1_655   S
    C178   H101      0.84556  1_655   S
    C124   O242      1.28063  1_655   S
    C124   H77       1.30194      .   S
    C124   C136      1.49656  1_655   S
    H42    C116      1.09717      .   S
    C187   Zr8       1.32819      .   S
    C187   H98       1.46823      .   S
    O246   C226      0.61109      .   S
    O270   C223      0.62989      .   S
    O295   Zr8       0.61148      .   S
    C226   C220      0.81993      .   S
    C195   Zr10      2.64604      .   S
    H96    C162      0.58486      .   S
    C148   C136      1.40450  1_655   S
    C148   C157      1.39825      .   S
    C153   C140      1.41588      .   S
    C153   C165      1.39838      .   S
    C156   C154      1.39750      .   S
    C162   C145      1.39732      .   S
    O269   C181      0.45739      .   S
    Zr10   C232      1.05283      .   S
    C140   C163      1.40473  1_565   S
    C143   H108      1.33519      .   S
    C143   O292      0.91948      .   S
    C139   C152      1.40351  1_665   S
    C136   C166      1.41633      .   S
    H44    O278      0.72014      .   S
    C116   C190      1.45311      .   S
    C116   O278      1.22489      .   S
    C116   H43       1.09779      .   S
    C213   C193      1.87565      .   S
    C190   C157      1.08312      .   S
    O268   H12       0.85414      .   S
    O268   C145      1.19388      .   S
    C191   C198      1.35551  1_455   S
    C157   C144      1.41688      .   S
    H16    C165      1.08785      .   S
    H62    O277      0.99069      .   S
    C165   C134      1.40463      .   S
    C154   O277      0.93893      .   S
    C145   H105      0.81511      .   S
    C145   C133      1.40309  1_565   S
    O292   C158      0.69265      .   S
    C198   O274      0.48344  1_655   S
    C198   C192      1.50973  1_655   S
    H37    C171      1.09733      .   S
    C163   H15       1.08811      .   S
    C163   C146      1.39872      .   S
    O274   C202      1.24957      .   S
    C158   H13       1.08783      .   S
    C158   C168      1.39780      .   S
    C152   C164      1.39753      .   S
    C188   C133      1.66645      .   S
    C166   C159      1.39854      .   S
    H61    C235      0.60426      .   S
    O294   C222      1.56785      .   S
    O294   C199      1.50928      .   S
    C171   H38       1.09874      .   S
    C171   C218      1.32530      .   S
    C171   H36       1.09720      .   S
    C144   C159      1.40455  1_655   S
    C144   C132      1.49554      .   S
    C134   C179      0.94989  1_565   S
    C133   C164      1.41630  1_655   S
    C133   C121      1.49268      .   S
    C179   C146      0.52847      .   S
    C218   C215      1.71811      .   S
    O289   H106      0.86361      .   S
    C146   C175      1.50797      .   S
    C159   O288      1.13379      .   S
    C159   H14       1.08771      .   S
    C202   C184      0.98981      .   S
    C164   H115      1.45568      .   S
    C164   C172      1.50852      .   S
    H80    C129      0.83422      .   S
    C183   C233      1.03024      .   S
    C194   O252      1.52953      .   S
    C184   O288      1.35567      .   S
    C184   C201      1.27991      .   S
    O252   C132      1.28066      .   S
    O257   C121      1.28184  1_565   S
    O257   Zr9       1.29084      .   S
    O261   C129      1.28154      .   S
    C205   C199      0.87778      .   S
    C205   H114      0.94009      .   S
    C205   C204      1.89971      .   S
    O240   C221      0.64936      .   S
    C132   O250      1.28269  1_655   S
    C216   O298      1.54887      .   S
    C121   H104      0.95040  1_655   S
    C121   O239      1.28030  1_655   S
    C129   O247      1.28046      .   S
    C122   C221      0.78529      .   S
    C122   O258      1.27914  1_565   S
    H23    C175      1.09669      .   S
    Zr9    Zr1       1.74210      .   S
    H45    C119      1.09675      .   S
    O275   C172      1.22553      .   S
    O275   H35       0.62140      .   S
    H33    C172      1.09690      .   S
    C175   Zr6       1.40177      .   S
    C175   H24       1.09918      .   S
    C119   H46       1.09716      .   S
    C119   H47       1.09845      .   S
    C119   H69       1.43804      .   S
    C172   H34       1.09886      .   S
    O298   C204      0.94216      .   S
    Zr6    C227      0.56084      .   S
    H110   O283      0.98528      .   S
    C180   O247      0.85308      .   S
    O293   H94       0.84646      .   S
    H22    O266      0.96928      .   S
    H18    O263      0.96929      .   S
    O258   H64       1.37308      .   S
    H97    C173      1.15666      .   S
    H32    C173      1.09755      .   S
    O279   O281      1.39661      .   S
    O279   H66       1.35479      .   S
    H78    Zr2       2.14046  1_565   S
    O266   C210      0.85303      .   S
    H29    C173      1.09707      .   S
    O281   H41       1.08929      .   S
    O237   C211      1.17645      .   S
    O237   Zr7       1.33005  1_455   S
    O267   Zr2       2.06944  1_565   S
    C208   O285      1.59124      .   S
    C173   H31       1.09890      .   S
    H113   Zr7       0.78129      .   S
    O290   C135      1.18634      .   S
    O290   C169      1.38841      .   S
    H56    C117      1.09833      .   S
    H17    C167      1.08753      .   S
    C211   Zr4       1.10671      .   S
    C210   Zr11      1.20250      .   S
    C203   O262      1.22529      .   S
    C160   C167      1.39691      .   S
    C160   C219      1.03696      .   S
    O297   O241      1.23588      .   S
    C167   C219      1.17545      .   S
    C167   C137      1.40431  1_565   S
    Zr7    Zr11      1.31504      .   S
    C219   C142      1.29625      .   S
    Zr11   Zr5       1.41957      .   S
    C137   C125      1.49255      .   S
    C125   O243      1.28428  1_545   S
    C125   O260      1.27753      .   S
    C130   O248      1.27799      .   S
    C130   O253      1.28399  1_565   S
    O244   C126      1.27852      .   S
    O254   C126      1.28334  1_655   S
    C117   H54       1.09681      .   S
    C117   C161      1.50715      .   S
    H19    C147      1.08630      .   S
    C161   C138      1.41672      .   S
    C161   C147      1.39654      .   S
    C138   C151      1.40486  1_455   S
    C147   C135      1.40468  1_455   S
    O262   C123      1.28327  1_455   S
    C151   H60       1.08626      .   S
    C151   C169      1.39692      .   S
    C135   C169      1.41673      .   S
    O236   Zr2       2.07036  1_454   S
    O236   Zr3       2.07312      .   S
    O236   Zr7       2.31969  1_444   S
    O237   Zr0       2.06806  1_565   S
    O237   Zr1       2.07317  1_455   S
    O237   Zr4       2.06605      .   S
    O237   Zr9       1.79095  1_455   S
    O237   Zr11      2.48663  1_455   S
    O237   H113      1.08568  1_455   S
    O238   Zr3       2.06848  1_565   S
    O238   Zr4       2.07427  1_554   S
    O238   Zr5       2.06667  1_454   S
    O238   Zr7       1.86573  1_454   S
    O239   Zr0       2.21007      .   S
    O239   Zr9       2.44179  1_445   S
    O239   H104      1.27843      .   S
    O240   Zr1       2.22173      .   S
    O240   C122      1.28460      .   S
    O241   Zr2       2.22518      .   S
    O241   C123      1.27884      .   S
    O241   O282      1.52204  1_656   S
    O242   Zr3       2.23835      .   S
    O242   C191      1.65570      .   S
    O243   Zr4       2.22269      .   S
    O244   Zr4       2.23016      .   S
    O244   O287      1.49351  1_556   S
    O245   Zr5       2.21994  1_554   S
    O246   Zr3       2.23410      .   S
    O246   C220      0.82760      .   S
    O246   O270      1.48679      .   S
    O247   Zr5       2.21963      .   S
    O247   C176      1.32829      .   S
    O248   Zr5       2.24272      .   S
    O249   Zr3       2.24875      .   S
    O249   O270      1.69025      .   S
    O250   Zr4       2.24428      .   S
    O251   Zr0       2.22447  1_554   S
    O251   H89       1.36626      .   S
    O251   C131      1.28057      .   S
    O252   Zr1       2.22568      .   S
    O252   Zr9       1.89385      .   S
    O253   Zr2       2.21500      .   S
    O253   Zr6       2.81867      .   S
    O254   Zr5       2.22877      .   S
    O254   Zr11      2.64377      .   S
    O255   Zr3       2.23888      .   S
    O256   Zr4       2.23473  1_554   S
    O256   C231      1.78713      .   S
    O257   Zr1       2.25279      .   S
    O258   Zr2       2.24619      .   S
    O258   Zr6       2.55692      .   S
    O258   C221      1.66366  1_545   S
    O258   O297      1.76703      .   S
    O259   Zr2       2.23726  1_554   S
    O259   O284      1.48724      .   S
    O260   Zr0       2.23605      .   S
    O261   Zr1       2.25563      .   S
    O261   H80       1.22314      .   S
    O261   C217      1.78177      .   S
    O262   Zr0       2.23013      .   S
    O262   C196      1.64736  1_556   S
    O262   O282      1.42219  1_556   S
    O263   Zr0       2.26821  1_655   S
    O263   Zr1       2.26346  1_545   S
    O263   Zr2       2.26632      .   S
    O263   Zr7       2.54128  1_545   S
    O263   Zr9       2.70214  1_545   S
    O264   Zr2       2.26665  1_554   S
    O264   Zr3       2.26961  1_655   S
    O264   Zr5       2.26394  1_544   S
    O264   Zr11      2.59562  1_544   S
    O264   H20       0.96965      .   S
    O264   C229      1.70762      .   S
    O265   Zr0       2.26677  1_554   S
    O265   Zr3       2.26906      .   S
    O265   Zr4       2.27031  1_544   S
    O265   Zr7       2.45388  1_444   S
    O266   Zr1       2.26918      .   S
    O266   Zr4       2.26460  1_655   S
    O266   Zr5       2.27128      .   S
    O266   Zr7       1.98203      .   S
    O266   Zr11      1.48044      .   S
    O266   H103      1.30931      .   S
    O267   Zr1       2.07185      .   S
    O267   Zr5       2.06845      .   S
    O267   Zr7       1.95623      .   S
    O267   Zr11      1.95945      .   S
    O267   H103      1.39348      .   S
    O268   Zr10      2.05390      .   S
    O268   H105      1.26650      .   S
    O268   C232      1.54868      .   S
    O270   C220      1.31921      .   S
    O270   C226      1.72742      .   S
    O271   Zr0       2.68580  1_554   S
    O271   O272      1.16564      .   S
    O272   Zr0       2.17682  1_554   S
    O272   C131      1.82373      .   S
    O282   Zr2       2.24561  1_454   S
    O282   C123      1.50469  1_454   S
    O295   H70       0.64527      .   S
    O295   C187      1.70154      .   S
    O297   Zr2       1.80315      .   S
