#======================================================================

# CRYSTAL DATA

#----------------------------------------------------------------------

data_VESTA_phase_1


_chemical_name_common                  'C106 H59 N18 O17 Pd2 Zn5'
_cell_length_a                         9.9494(3)
_cell_length_b                         32.4013(11)
_cell_length_c                         38.9202(6)
_cell_angle_alpha                      90
_cell_angle_beta                       93.7494(19)
_cell_angle_gamma                      90
_space_group_name_H-M_alt              'P 21/n'
_space_group_IT_number                 14

loop_
_space_group_symop_operation_xyz
   'x, y, z'
   '-x, -y, -z'
   '-x+1/2, y+1/2, -z+1/2'
   'x+1/2, -y+1/2, z+1/2'

loop_
   _atom_site_label
   _atom_site_occupancy
   _atom_site_fract_x
   _atom_site_fract_y
   _atom_site_fract_z
   _atom_site_adp_type
   _atom_site_U_iso_or_equiv
   _atom_site_type_symbol
   Pd01       1.0    -0.04416(6)    0.760258(16)  0.465049(13) Uiso  0.056599 Pd
   Pd02       1.0     0.57730(6)    0.244517(16)  0.461067(13) Uiso  0.056195 Pd
   Zn03       1.0     0.14716(9)    0.46819(2)    0.241318(18) Uiso  0.052866 Zn
   Zn04       1.0    -0.16795(9)    0.94632(2)    0.740829(18) Uiso  0.052944 Zn
   Zn05       1.0    -0.12686(10)   1.01228(2)    0.68668(2)   Uiso  0.059603 Zn
   Zn06       1.0    -0.42801(9)    0.96643(2)    0.687765(19) Uiso  0.058708 Zn
   Zn07       1.0     0.23406(9)    0.48933(3)    0.654597(19) Uiso  0.059904 Zn
   O008       1.0    -0.2679(5)     0.98878(13)   0.71359(10)  Uiso  0.051095 O
   O009       1.0    -0.4497(7)     0.98701(14)   0.32549(14)  Uiso  0.071591 O
   O00A       1.0     0.4263(7)     0.61650(17)   0.28379(14)  Uiso  0.069962 O
   O00B       1.0     1.0196(7)     0.03520(16)   0.32833(16)  Uiso  0.086897 O
   O00C       1.0     0.3128(7)     0.43834(17)   0.63642(13)  Uiso  0.076743 O
   O00D       1.0     0.2266(7)     0.58591(16)   0.27234(12)  Uiso  0.067292 O
   O00E       1.0     0.2706(5)     0.43539(16)   0.27177(12)  Uiso  0.063630 O
   N00F       1.0     0.5544(7)     0.24243(18)   0.51173(16)  Uiso  0.063979 N
   N00G       1.0    -0.0425(8)     0.75264(18)   0.51660(16)  Uiso  0.070146 N
   O00H       1.0     0.0793(7)     0.40694(16)   0.28107(16)  Uiso  0.077761 O
   O00I       1.0    -0.5530(7)     0.93475(16)   0.29579(13)  Uiso  0.075080 O
   N00J       1.0     0.0280(7)     0.50462(16)   0.26750(13)  Uiso  0.052265 N
   N00K       1.0     0.0688(7)     0.70882(16)   0.46121(14)  Uiso  0.053453 N
   N00L       1.0     0.6006(7)     0.24610(17)   0.40992(14)  Uiso  0.061473 N
   O00M       1.0     1.0900(7)     0.08756(16)   0.29564(12)  Uiso  0.070136 O
   N00N       1.0     0.6926(7)     0.19328(17)   0.46485(14)  Uiso  0.060895 N
   N00O       1.0    -0.0492(7)     0.76779(17)   0.41348(14)  Uiso  0.062569 N
   N00P       1.0     0.0112(7)     1.03441(18)   0.72384(14)  Uiso  0.060577 N
   N00Q       1.0    -0.1017(7)     0.52681(18)   0.31023(14)  Uiso  0.059453 N
   O00R       1.0     0.1493(7)     0.54036(17)   0.63519(16)  Uiso  0.085556 O
   O00S       1.0    -0.3912(7)     0.9339(2)     0.64742(16)  Uiso  0.089095 O
   N00T       1.0    -0.0390(7)     0.55705(17)   0.22533(14)  Uiso  0.058704 N
   O00U       1.0     0.8732(8)     0.0607(2)     0.65629(18)  Uiso  0.098744 O
   N00V       1.0     0.1149(7)     1.0048(2)     0.80849(16)  Uiso  0.061563 N
   N00W       1.0    -0.1531(7)     0.8126(2)     0.46843(14)  Uiso  0.062604 N
   N00X       1.0    -0.0325(7)     0.98162(18)   0.76650(14)  Uiso  0.060279 N
   N00Y       1.0    -0.2048(7)     0.60474(18)   0.24375(16)  Uiso  0.070766 N
   H00Y       1.0    -0.257000      0.626100      0.238600     Uiso  0.085000 H
   O00Z       1.0     0.1195(7)     0.4450(2)     0.60537(16)  Uiso  0.093816 O
   H00Z       1.0     0.077300      0.444400      0.623400     Uiso  0.141000 H
   C010       1.0     0.1233(8)     1.0305(2)     0.78108(17)  Uiso  0.056409 C
   C011       1.0     0.1073(8)     0.6824(2)     0.4874(2)    Uiso  0.057433 C
   N012       1.0     0.4614(7)     0.29556(17)   0.45695(16)  Uiso  0.059962 N
   N013       1.0    -0.2843(7)     0.6044(2)     0.29857(17)  Uiso  0.075900 N
   H01A       1.0    -0.332300      0.626500      0.292900     Uiso  0.091000 H
   H01B       1.0    -0.287300      0.593700      0.319300     Uiso  0.091000 H
   C014       1.0     0.5958(8)     0.2110(2)     0.53437(18)  Uiso  0.063969 C
   C015       1.0    -0.4679(9)     0.9491(2)     0.31968(18)  Uiso  0.065233 C
   C016       1.0     0.0320(7)     1.0164(2)     0.7552(2)    Uiso  0.055603 C
   C017       1.0    -0.3926(9)     0.9181(2)     0.34040(18)  Uiso  0.064089 C
   N018       1.0     0.2932(7)     1.0825(2)     0.7970(2)    Uiso  0.075622 N
   H01C       1.0     0.336600      1.105000      0.791600     Uiso  0.091000 H
   H01D       1.0     0.308200      1.071400      0.817600     Uiso  0.091000 H
   C019       1.0     0.9447(8)     0.1022(2)     0.33948(17)  Uiso  0.059080 C
   C01A       1.0     0.2044(10)    0.4103(2)     0.28688(18)  Uiso  0.062130 C
   C01B       1.0     0.4221(8)     0.3055(2)     0.51821(18)  Uiso  0.056580 C
   C01C       1.0     0.1047(8)     0.6906(2)     0.43147(18)  Uiso  0.060890 C
   C01D       1.0     0.2773(9)     0.3825(2)     0.31411(17)  Uiso  0.061651 C
   C01E       1.0     0.5334(9)     0.2730(2)     0.38633(18)  Uiso  0.066891 C
   C01F       1.0     0.3068(9)     0.6116(2)     0.2889(2)    Uiso  0.062842 C
   C01G       1.0     0.0823(9)     0.7068(2)     0.39793(18)  Uiso  0.066252 C
   C01H       1.0    -0.0467(7)     0.5386(2)     0.25646(16)  Uiso  0.048886 C
   C01I       1.0     0.4778(9)     0.2693(4)     0.5296(2)    Uiso  0.071984 C
   C01J       1.0    -0.2052(8)     0.5868(2)     0.2752(2)    Uiso  0.061850 C
   C01K       1.0     1.0239(9)     0.0729(2)     0.31961(17)  Uiso  0.066924 C
   C01L       1.0     0.3670(9)     0.3344(2)     0.54438(17)  Uiso  0.062003 C
   C01M       1.0     0.1729(8)     0.6464(2)     0.4731(2)    Uiso  0.061497 C
   H01M       1.0     0.210200      0.623300      0.485400     Uiso  0.074000 H
   C01N       1.0    -0.2013(9)     0.8290(2)     0.4989(2)    Uiso  0.067921 C
   C01O       1.0    -0.1243(8)     0.5528(2)     0.28187(18)  Uiso  0.063347 C
   C01P       1.0    -0.0175(8)     0.4993(2)     0.29880(17)  Uiso  0.059716 C
   H01P       1.0     0.010300      0.476200      0.312500     Uiso  0.072000 H
   C01Q       1.0    -0.1257(8)     0.5899(2)     0.2209(2)    Uiso  0.067401 C
   H01Q       1.0    -0.128800      0.603300      0.199200     Uiso  0.081000 H
   C01R       1.0     0.1691(8)     0.6527(2)     0.4396(2)    Uiso  0.063788 C
   H01R       1.0     0.204400      0.634500      0.423300     Uiso  0.077000 H
   O01S       1.0     0.3329(9)     0.5301(2)     0.6080(2)    Uiso  0.110843 O
   C01T       1.0     0.4142(8)     0.3174(2)     0.48357(18)  Uiso  0.059709 C
   C01U       1.0     0.6802(8)     0.1784(2)     0.52709(18)  Uiso  0.060199 C
   C01V       1.0     0.7289(8)     0.1714(2)     0.49546(18)  Uiso  0.060000 C
   C01W       1.0     0.8449(9)     0.0871(4)     0.3587(2)    Uiso  0.073338 C
   H01W       1.0     0.823300      0.058600      0.358600     Uiso  0.088000 H
   C01X       1.0    -0.2015(10)    0.8358(2)     0.4426(2)    Uiso  0.075546 C
   C01Y       1.0     0.1393(8)     0.6824(2)     0.36921(17)  Uiso  0.058806 C
   C01Z       1.0     0.2348(11)    0.4275(4)     0.6111(2)    Uiso  0.078214 C
   C020       1.0     0.2462(9)     0.6369(2)     0.31664(18)  Uiso  0.065907 C
   C021       1.0    -0.2263(9)     0.8356(4)     0.5613(2)    Uiso  0.071678 C
   C022       1.0     0.8375(11)    0.1411(4)     0.4536(2)    Uiso  0.087793 C
   H022       1.0     0.893700      0.123400      0.441300     Uiso  0.105000 H
   C023       1.0     0.0852(8)     0.6871(2)     0.52183(16)  Uiso  0.057046 C
   C024       1.0     0.0229(8)     0.9771(2)     0.79901(16)  Uiso  0.057022 C
   H024       1.0    -0.002600      0.955600      0.813800     Uiso  0.068000 H
   C025       1.0     0.1960(11)    0.5880(4)     0.5914(2)    Uiso  0.076966 C
   C026       1.0    -0.1846(9)     0.8308(2)     0.4079(2)    Uiso  0.070830 C
   C027       1.0    -0.0648(10)    0.7638(4)     0.5738(2)    Uiso  0.080656 C
   H027       1.0    -0.088100      0.776800      0.594500     Uiso  0.097000 H
   C028       1.0    -0.0837(10)    0.7946(4)     0.3588(2)    Uiso  0.083324 C
   H028       1.0    -0.111200      0.813100      0.340700     Uiso  0.100000 H
   C029       1.0     0.8085(9)     0.1572(2)     0.37987(18)  Uiso  0.066418 C
   C02A       1.0     0.4089(9)     0.3852(4)     0.3219(2)    Uiso  0.072870 C
   H02A       1.0     0.461200      0.404300      0.310000     Uiso  0.088000 H
   C02B       1.0     0.2780(9)     0.3937(4)     0.5901(2)    Uiso  0.069573 C
   C02C       1.0     0.0137(9)     0.7426(2)     0.39022(18)  Uiso  0.068605 C
   C02D       1.0     0.7467(8)     0.1849(2)     0.4043(2)    Uiso  0.062490 C
   C02E       1.0     0.0676(11)    0.6005(4)     0.5870(2)    Uiso  0.085560 C
   H02E       1.0     0.001600      0.587000      0.599500     Uiso  0.103000 H
   C02F       1.0     0.4615(8)     0.3070(2)     0.39445(18)  Uiso  0.064421 C
   N02G       1.0     0.1817(8)     1.0827(2)     0.7422(2)    Uiso  0.086605 N
   H02G       1.0     0.227200      1.104600      0.736300     Uiso  0.104000 H
   C02H       1.0     0.0178(9)     0.7209(2)     0.53513(18)  Uiso  0.068968 C
   C02I       1.0    -0.1102(10)    0.7984(2)     0.3942(2)    Uiso  0.076813 C
   C02J       1.0     0.1253(9)     0.6526(2)     0.54664(18)  Uiso  0.063353 C
   C02K       1.0     0.7560(9)     0.1749(2)     0.4392(2)    Uiso  0.068397 C
   C02L       1.0     0.3959(9)     0.3323(2)     0.3652(2)    Uiso  0.063387 C
   C02M       1.0    -0.1709(9)     0.8137(2)     0.5325(2)    Uiso  0.068234 C
   C02N       1.0    -0.0964(9)     0.7774(4)     0.54041(18)  Uiso  0.075991 C
   O02O       1.0    -0.4243(11)    0.8755(2)     0.6729(2)    Uiso  0.134384 O
   C02P       1.0     0.4721(11)    0.2545(4)     0.5656(2)    Uiso  0.081433 C
   H02P       1.0     0.428800      0.267900      0.583600     Uiso  0.098000 H
   C02Q       1.0     0.7114(9)     0.1474(2)     0.5545(2)    Uiso  0.068955 C
   C02R       1.0     0.6656(8)     0.2188(2)     0.3903(2)    Uiso  0.063804 C
   C02S       1.0     0.2706(9)     0.6879(4)     0.3610(2)    Uiso  0.076709 C
   H02S       1.0     0.325600      0.707700      0.373100     Uiso  0.092000 H
   C02T       1.0     0.3609(10)    0.3546(4)     0.4365(2)    Uiso  0.081786 C
   H02T       1.0     0.330200      0.375600      0.420900     Uiso  0.098000 H
   C02U       1.0     0.1122(10)    0.6323(4)     0.3241(2)    Uiso  0.086194 C
   H02U       1.0     0.055300      0.613200      0.311500     Uiso  0.103000 H
   C02V       1.0     0.0910(9)     1.0664(4)     0.7203(2)    Uiso  0.070208 C
   H02V       1.0     0.081300      1.079800      0.698500     Uiso  0.084000 H
   C02W       1.0    -0.3289(10)    0.8762(4)     0.6172(2)    Uiso  0.081681 C
   C02X       1.0     0.9052(9)     0.1709(2)     0.3596(2)    Uiso  0.071492 C
   H02X       1.0     0.926500      0.199500      0.359500     Uiso  0.086000 H
   C02Y       1.0     0.4277(8)     0.3181(2)     0.42745(18)  Uiso  0.058192 C
   C02Z       1.0    -0.2409(9)     0.8960(4)     0.5984(2)    Uiso  0.071856 C
   H02Z       1.0    -0.212400      0.923200      0.604100     Uiso  0.086000 H
   C030       1.0     0.7752(9)     0.1153(4)     0.3788(2)    Uiso  0.076885 C
   H030       1.0     0.704200      0.105500      0.391800     Uiso  0.093000 H
   C031       1.0     0.6440(10)    0.2272(4)     0.3551(2)    Uiso  0.083338 C
   H031       1.0     0.675700      0.211600      0.336600     Uiso  0.100000 H
   C032       1.0     0.2288(11)    0.5511(4)     0.6129(2)    Uiso  0.079626 C
   C033       1.0     0.5405(10)    0.2183(4)     0.5679(2)    Uiso  0.080253 C
   H033       1.0     0.550700      0.200900      0.587600     Uiso  0.097000 H
   C034       1.0    -0.2765(13)    0.9299(4)     0.3597(2)    Uiso  0.090833 C
   H034       1.0    -0.244400      0.957400      0.358600     Uiso  0.109000 H
   C035       1.0     0.2064(9)     1.0656(2)     0.7747(2)    Uiso  0.068372 C
   C036       1.0     0.3474(9)     0.3550(2)     0.4700(2)    Uiso  0.073445 C
   H036       1.0     0.303600      0.375500      0.482800     Uiso  0.088000 H
   C037       1.0    -0.2582(10)    0.8605(2)     0.3826(2)    Uiso  0.072400 C
   C038       1.0     0.4707(10)    0.3602(4)     0.3472(2)    Uiso  0.077123 C
   H038       1.0     0.565200      0.362200      0.352200     Uiso  0.092000 H
   C039       1.0    -0.3850(10)    0.8973(4)     0.6487(2)    Uiso  0.081510 C
   C03A       1.0     0.4546(10)    0.3518(4)     0.5697(2)    Uiso  0.081047 C
   H03A       1.0     0.546900      0.344000      0.571400     Uiso  0.097000 H
   C03B       1.0     0.0254(11)    0.6339(4)     0.5641(2)    Uiso  0.081042 C
   H03B       1.0    -0.066000      0.642400      0.561200     Uiso  0.097000 H
   C03C       1.0     0.2350(9)     0.3459(4)     0.5416(2)    Uiso  0.069443 C
   H03C       1.0     0.174900      0.334100      0.524300     Uiso  0.083000 H
   O03D       1.0     0.7174(10)    0.0204(4)     0.6304(2)    Uiso  0.136413 O
   C03E       1.0     0.7580(13)    0.0880(4)     0.6057(4)    Uiso  0.094005 C
   C03F       1.0     0.0630(10)    0.6560(4)     0.3501(2)    Uiso  0.082530 C
   H03F       1.0    -0.029300      0.653300      0.354700     Uiso  0.099000 H
   C03G       1.0     0.4078(9)     0.3802(4)     0.5923(2)    Uiso  0.079520 C
   H03G       1.0     0.468300      0.390800      0.610000     Uiso  0.096000 H
   C03H       1.0     0.2580(11)    0.3311(4)     0.3573(2)    Uiso  0.087646 C
   H03H       1.0     0.204400      0.312600      0.369600     Uiso  0.105000 H
   C03I       1.0    -0.1918(10)    0.8757(4)     0.5701(2)    Uiso  0.081789 C
   H03I       1.0    -0.132000      0.890100      0.556300     Uiso  0.098000 H
   C03J       1.0    -0.0129(11)    0.7601(4)     0.3560(2)    Uiso  0.089162 C
   H03J       1.0     0.015600      0.748700      0.335200     Uiso  0.107000 H
   C03K       1.0     0.9744(9)     0.1439(2)     0.3390(2)    Uiso  0.070563 C
   H03K       1.0     1.040900      0.154100      0.324800     Uiso  0.085000 H
   C03L       1.0    -0.2882(13)    0.8636(4)     0.4896(2)    Uiso  0.100519 C
   H03L       1.0    -0.336600      0.880000      0.504800     Uiso  0.121000 H
   C03M       1.0     0.7865(13)    0.0539(4)     0.6335(4)    Uiso  0.096884 C
   C03N       1.0     0.8187(9)     0.1394(4)     0.4873(2)    Uiso  0.077849 C
   H03N       1.0     0.858900      0.120000      0.503100     Uiso  0.093000 H
   C03O       1.0     0.1984(9)     0.3552(4)     0.3330(2)    Uiso  0.080753 C
   H03O       1.0     0.103500      0.354100      0.328300     Uiso  0.097000 H
   C03P       1.0     0.1880(9)     0.3756(4)     0.5648(2)    Uiso  0.073038 C
   H03P       1.0     0.095800      0.383400      0.563300     Uiso  0.088000 H
   C03Q       1.0    -0.2080(10)    0.9012(2)     0.3806(2)    Uiso  0.083535 C
   H03Q       1.0    -0.127300      0.908800      0.393400     Uiso  0.100000 H
   C03R       1.0    -0.3169(11)    0.8164(4)     0.5828(4)    Uiso  0.099390 C
   H03R       1.0    -0.346900      0.789300      0.577200     Uiso  0.119000 H
   C03S       1.0    -0.2873(13)    0.8680(4)     0.4563(4)    Uiso  0.100973 C
   H03S       1.0    -0.334400      0.888600      0.443100     Uiso  0.121000 H
   C03T       1.0    -0.4360(10)    0.8783(2)     0.3409(2)    Uiso  0.083656 C
   H03T       1.0    -0.513500      0.870000      0.327000     Uiso  0.101000 H
   C03U       1.0     0.2607(11)    0.6402(4)     0.5520(2)    Uiso  0.086040 C
   H03U       1.0     0.329300      0.654800      0.541300     Uiso  0.103000 H
   C03V       1.0     0.0058(11)    0.7283(4)     0.5710(2)    Uiso  0.082578 C
   H03V       1.0     0.040700      0.711400      0.589500     Uiso  0.099000 H
   C03W       1.0     0.3222(9)     0.6649(4)     0.3356(2)    Uiso  0.078592 C
   H03W       1.0     0.414100      0.668400      0.331000     Uiso  0.094000 H
   C03X       1.0     0.2940(10)    0.6063(4)     0.5733(2)    Uiso  0.082384 C
   H03X       1.0     0.383600      0.596000      0.575100     Uiso  0.099000 H
   C03Y       1.0     0.5689(11)    0.2619(4)     0.3527(2)    Uiso  0.087437 C
   H03Y       1.0     0.544100      0.276500      0.332000     Uiso  0.105000 H
   C03Z       1.0    -0.3628(11)    0.8346(4)     0.6107(4)    Uiso  0.098398 C
   H03Z       1.0    -0.416700      0.819700      0.625700     Uiso  0.118000 H
   C040       1.0    -0.3639(10)    0.8491(4)     0.3624(2)    Uiso  0.077803 C
   H040       1.0    -0.392000      0.821100      0.362200     Uiso  0.093000 H
   C041       1.0     0.8275(13)    0.1232(4)     0.6070(4)    Uiso  0.107048 C
   H041       1.0     0.897800      0.127900      0.624200     Uiso  0.129000 H
   C042       1.0     0.6500(13)    0.1086(4)     0.5531(4)    Uiso  0.104178 C
   H042       1.0     0.591300      0.101600      0.533700     Uiso  0.125000 H
   C043       1.0     0.7913(14)    0.1544(4)     0.5807(4)    Uiso  0.117772 C
   H043       1.0     0.829500      0.181100      0.583300     Uiso  0.141000 H
   C046       1.0     0.6734(14)    0.0800(4)     0.5795(4)    Uiso  0.125623 C
   H046       1.0     0.627100      0.054400      0.578500     Uiso  0.151000 H

loop_
   _atom_site_aniso_label
   _atom_site_aniso_U_11
   _atom_site_aniso_U_22
   _atom_site_aniso_U_33
   _atom_site_aniso_U_12
   _atom_site_aniso_U_13
   _atom_site_aniso_U_23
   Pd01	 0.09060  0.04290  0.03710  0.01050  0.01030 -0.00360
   Pd02	 0.08400  0.04440  0.04100  0.01080  0.01030  0.00610
   Zn03	 0.07970  0.04220  0.03730  0.00040  0.00840  0.00460
   Zn04	 0.08100  0.04080  0.03820  0.00040  0.01280  0.00550
   Zn05	 0.09550  0.04310  0.04180  0.00750  0.01660  0.00790
   Zn06	 0.09280  0.04390  0.04010  0.00680  0.00950 -0.00610
   Zn07	 0.08800  0.05280  0.03990  0.01020  0.01170  0.00330
   O008	 0.07300  0.04500  0.03600  0.00500  0.00900 -0.00100
   O009	 0.10300  0.03600  0.07200  0.01600 -0.02300 -0.00100
   O00A	 0.07300  0.07300  0.06500  0.00300  0.01300 -0.01700
   O00B	 0.15000  0.04500  0.07000  0.01100  0.04000  0.01000
   O00C	 0.12000  0.06300  0.04900  0.00600  0.01900 -0.01100
   O00D	 0.10200  0.05600  0.04600  0.00100  0.02100 -0.01600
   O00E	 0.08800  0.05300  0.05100  0.00800  0.01300  0.01400
   N00F	 0.09400  0.04300  0.05600  0.00400  0.01300  0.00200
   N00G	 0.11000  0.04500  0.05800  0.01500  0.02500  0.00200
   O00H	 0.10400  0.05400  0.07700  0.01500  0.01900  0.02100
   O00I	 0.12200  0.04700  0.05600  0.01500  0.00400 -0.00100
   N00J	 0.07700  0.04100  0.04000  0.00300  0.01300  0.01000
   N00K	 0.07500  0.03500  0.05100  0.00700  0.00900 -0.00300
   N00L	 0.09500  0.04500  0.04500  0.00700  0.00900  0.00400
   O00M	 0.11300  0.05200  0.04800  0.01600  0.02500  0.00500
   N00N	 0.09300  0.04200  0.04800  0.00900  0.00700  0.00700
   N00O	 0.10700  0.04200  0.03900  0.02900  0.00700 -0.00200
   N00P	 0.08600  0.05000  0.04700  0.01000  0.01400  0.01200
   N00Q	 0.08600  0.05300  0.04000  0.00400  0.00900  0.01100
   O00R	 0.14000  0.05900  0.05800  0.00300  0.00900  0.00900
   O00S	 0.14700  0.05700  0.06500  0.01000  0.02000 -0.01300
   N00T	 0.08300  0.04700  0.04700  0.00100  0.01100  0.00500
   O00U	 0.13300  0.08700  0.07900  0.01700  0.02800  0.02900
   N00V	 0.07700  0.05200  0.05800 -0.00300  0.02200  0.00200
   N00W	 0.09100  0.05900  0.03700  0.00700 -0.00200 -0.01200
   N00X	 0.08500  0.05500  0.04200  0.01300  0.01300  0.01100
   N00Y	 0.10800  0.04000  0.06500  0.00900  0.01100  0.01100
   H00Y	 0.00000  0.00000  0.00000  0.00000  0.00000  0.00000
   O00Z	 0.11400  0.09400  0.07500  0.01900  0.01800 -0.01800
   H00Z	 0.00000  0.00000  0.00000  0.00000  0.00000  0.00000
   C010	 0.08400  0.04400  0.04200 -0.00400  0.01000  0.00100
   C011	 0.07000  0.04100  0.06100 -0.00900  0.00200  0.00000
   N012	 0.08700  0.04300  0.05100  0.00500  0.01300  0.00400
   N013	 0.10400  0.06200  0.06400  0.00800  0.02300  0.00000
   H01A	 0.00000  0.00000  0.00000  0.00000  0.00000  0.00000
   H01B	 0.00000  0.00000  0.00000  0.00000  0.00000  0.00000
   C014	 0.08500  0.06100  0.04600  0.00000  0.00500  0.00000
   C015	 0.09800  0.05200  0.04600  0.00800  0.00700  0.00000
   C016	 0.05900  0.04800  0.06100 -0.00100  0.01300  0.00200
   C017	 0.09000  0.05800  0.04500  0.00800  0.01000 -0.00500
   N018	 0.10000  0.04400  0.08300 -0.01900  0.00700 -0.00100
   H01C	 0.00000  0.00000  0.00000  0.00000  0.00000  0.00000
   H01D	 0.00000  0.00000  0.00000  0.00000  0.00000  0.00000
   C019	 0.08500  0.04900  0.04400  0.01300  0.01000  0.00100
   C01A	 0.08600  0.05400  0.04700  0.01800  0.00900  0.00400
   C01B	 0.07200  0.04700  0.05100  0.00400  0.00600 -0.00300
   C01C	 0.08600  0.04600  0.05100  0.00500  0.00700 -0.01000
   C01D	 0.09400  0.05200  0.04100  0.00900  0.02000  0.01100
   C01E	 0.09800  0.06300  0.04000  0.01500  0.00700  0.01400
   C01F	 0.09200  0.04400  0.05400  0.01400  0.01600 -0.00300
   C01G	 0.11000  0.04200  0.04700  0.01600  0.00700 -0.00600
   C01H	 0.05800  0.04300  0.04600  0.00200  0.00600  0.00100
   C01I	 0.10000  0.07400  0.04200  0.00100  0.00500 -0.00400
   C01J	 0.08400  0.04600  0.05600 -0.00500  0.00800 -0.00100
   C01K	 0.10300  0.06000  0.03900  0.00200  0.01400  0.00000
   C01L	 0.09300  0.05100  0.04300  0.01400  0.01200  0.00200
   C01M	 0.08700  0.03900  0.05800  0.01800  0.00100  0.00200
   H01M	 0.00000  0.00000  0.00000  0.00000  0.00000  0.00000
   C01N	 0.10300  0.04500  0.05600  0.01600  0.00700 -0.01000
   C01O	 0.09600  0.04700  0.04800 -0.00700  0.01200  0.00300
   C01P	 0.08400  0.05300  0.04200  0.00800  0.00300  0.00500
   H01P	 0.00000  0.00000  0.00000  0.00000  0.00000  0.00000
   C01Q	 0.09300  0.05200  0.05800  0.01000  0.01100  0.01100
   H01Q	 0.00000  0.00000  0.00000  0.00000  0.00000  0.00000
   C01R	 0.08400  0.04500  0.06200  0.02600  0.00200 -0.00700
   H01R	 0.00000  0.00000  0.00000  0.00000  0.00000  0.00000
   O01S	 0.16400  0.07600  0.09300  0.01400  0.01200  0.02900
   C01T	 0.08400  0.04700  0.04900  0.01700  0.01100  0.00700
   C01U	 0.08700  0.04100  0.05200  0.00400  0.00000  0.01400
   C01V	 0.08400  0.04700  0.05000  0.01300  0.01200  0.02000
   C01W	 0.09900  0.06200  0.06200 -0.00100  0.02800  0.00200
   H01W	 0.00000  0.00000  0.00000  0.00000  0.00000  0.00000
   C01X	 0.11300  0.05600  0.05900  0.02900  0.01600  0.00000
   C01Y	 0.08800  0.04800  0.04000  0.01500  0.00100 -0.00500
   C01Z	 0.11700  0.06300  0.05600  0.00300  0.01600 -0.01100
   C020	 0.10400  0.04900  0.04500  0.01500  0.00700 -0.00500
   C021	 0.10900  0.06300  0.04500  0.01000  0.02000 -0.01000
   C022	 0.13300  0.07200  0.05900  0.05500  0.01100  0.01800
   H022	 0.00000  0.00000  0.00000  0.00000  0.00000  0.00000
   C023	 0.08700  0.04700  0.03700  0.01200  0.00300  0.00000
   C024	 0.08000  0.05300  0.03900 -0.00100  0.01100  0.00500
   H024	 0.00000  0.00000  0.00000  0.00000  0.00000  0.00000
   C025	 0.11100  0.06200  0.05600  0.01600 -0.00900  0.01000
   C026	 0.11300  0.03700  0.06200  0.03600  0.00200  0.00000
   C027	 0.12600  0.07500  0.04300 -0.00200  0.02100 -0.01300
   H027	 0.00000  0.00000  0.00000  0.00000  0.00000  0.00000
   C028	 0.14300  0.06200  0.04600  0.03800  0.01400  0.00700
   H028	 0.00000  0.00000  0.00000  0.00000  0.00000  0.00000
   C029	 0.09800  0.05700  0.04600  0.02200  0.01800  0.00600
   C02A	 0.06600  0.08500  0.06900  0.00400  0.01500  0.03500
   H02A	 0.00000  0.00000  0.00000  0.00000  0.00000  0.00000
   C02B	 0.08400  0.06900  0.05800 -0.00100  0.02200 -0.00900
   C02C	 0.11200  0.05500  0.04000  0.02000  0.01400 -0.00500
   C02D	 0.08200  0.04500  0.06300  0.01000  0.02400 -0.00100
   C02E	 0.12800  0.07600  0.05400 -0.01600  0.01600  0.00900
   H02E	 0.00000  0.00000  0.00000  0.00000  0.00000  0.00000
   C02F	 0.08700  0.06000  0.04700  0.00500  0.01000  0.01100
   N02G	 0.11100  0.06700  0.08400 -0.01000  0.02300  0.02900
   H02G	 0.00000  0.00000  0.00000  0.00000  0.00000  0.00000
   C02H	 0.11400  0.04600  0.04700 -0.01200  0.00600  0.00200
   C02I	 0.12500  0.05600  0.05000  0.03200  0.01000 -0.00300
   C02J	 0.08900  0.05400  0.04700 -0.00200  0.00400  0.00800
   C02K	 0.09400  0.05800  0.05400  0.02400  0.01100  0.01000
   C02L	 0.08300  0.05000  0.05800  0.01700  0.01100  0.00700
   C02M	 0.09700  0.06000  0.04800  0.00500  0.00700 -0.01600
   C02N	 0.09200  0.10100  0.03600 -0.01000  0.01200 -0.01400
   O02O	 0.23200  0.08700  0.09300  0.02500  0.07800 -0.00300
   C02P	 0.13000  0.06100  0.05500  0.01500  0.01900  0.00500
   H02P	 0.00000  0.00000  0.00000  0.00000  0.00000  0.00000
   C02Q	 0.10300  0.05500  0.04900  0.01100  0.00600  0.01300
   C02R	 0.08500  0.04300  0.06500  0.01400  0.01700  0.01200
   C02S	 0.09000  0.06700  0.07400  0.00500  0.01200 -0.02100
   H02S	 0.00000  0.00000  0.00000  0.00000  0.00000  0.00000
   C02T	 0.11900  0.06800  0.06100  0.03400  0.02600  0.01800
   H02T	 0.00000  0.00000  0.00000  0.00000  0.00000  0.00000
   C02U	 0.10000  0.07900  0.08300 -0.02700  0.03200 -0.04300
   H02U	 0.00000  0.00000  0.00000  0.00000  0.00000  0.00000
   C02V	 0.08100  0.06500  0.06400 -0.01700  0.00000  0.01200
   H02V	 0.00000  0.00000  0.00000  0.00000  0.00000  0.00000
   C02W	 0.11800  0.07100  0.05700  0.00400  0.01300 -0.01900
   C02X	 0.11200  0.04200  0.06000  0.02100  0.00200  0.00500
   H02X	 0.00000  0.00000  0.00000  0.00000  0.00000  0.00000
   C02Y	 0.07700  0.04900  0.05000  0.01500  0.01500  0.00900
   C02Z	 0.09100  0.06100  0.06500  0.00000  0.01600 -0.01800
   H02Z	 0.00000  0.00000  0.00000  0.00000  0.00000  0.00000
   C030	 0.09700  0.06500  0.07200  0.02300  0.03100  0.01000
   H030	 0.00000  0.00000  0.00000  0.00000  0.00000  0.00000
   C031	 0.12300  0.07200  0.05700  0.03700  0.02100 -0.00500
   H031	 0.00000  0.00000  0.00000  0.00000  0.00000  0.00000
   C032	 0.10100  0.06400  0.07300  0.01100 -0.00100  0.00600
   C033	 0.12100  0.06300  0.05600  0.02100  0.00000  0.01500
   H033	 0.00000  0.00000  0.00000  0.00000  0.00000  0.00000
   C034	 0.14800  0.05500  0.06700  0.00600 -0.01200  0.00900
   H034	 0.00000  0.00000  0.00000  0.00000  0.00000  0.00000
   C035	 0.09700  0.03400  0.07600  0.00200  0.02000  0.00400
   C036	 0.10500  0.05900  0.05800  0.02100  0.01800  0.00300
   H036	 0.00000  0.00000  0.00000  0.00000  0.00000  0.00000
   C037	 0.12000  0.04800  0.04900  0.01700  0.00400 -0.00300
   C038	 0.09400  0.08400  0.05300  0.00000  0.00200  0.01700
   H038	 0.00000  0.00000  0.00000  0.00000  0.00000  0.00000
   C039	 0.09800  0.09000  0.05600  0.00500  0.00100 -0.00600
   C03A	 0.08600  0.08800  0.06900  0.01100  0.00400 -0.00800
   H03A	 0.00000  0.00000  0.00000  0.00000  0.00000  0.00000
   C03B	 0.11200  0.07000  0.06300  0.01000  0.02000  0.01700
   H03B	 0.00000  0.00000  0.00000  0.00000  0.00000  0.00000
   C03C	 0.08500  0.07000  0.05300 -0.00700  0.00200 -0.00200
   H03C	 0.00000  0.00000  0.00000  0.00000  0.00000  0.00000
   O03D	 0.17400  0.08700  0.15000 -0.02800  0.02400  0.04500
   C03E	 0.13200  0.08400  0.06700  0.02000  0.01400  0.03200
   C03F	 0.09100  0.07700  0.08200  0.00400  0.02400 -0.03000
   H03F	 0.00000  0.00000  0.00000  0.00000  0.00000  0.00000
   C03G	 0.07400  0.08800  0.07500  0.00700 -0.00700 -0.02000
   H03G	 0.00000  0.00000  0.00000  0.00000  0.00000  0.00000
   C03H	 0.11300  0.07200  0.08000  0.00200  0.02200  0.04100
   H03H	 0.00000  0.00000  0.00000  0.00000  0.00000  0.00000
   C03I	 0.11300  0.06600  0.06900  0.00100  0.02600 -0.02000
   H03I	 0.00000  0.00000  0.00000  0.00000  0.00000  0.00000
   C03J	 0.15800  0.07100  0.04000  0.05100  0.01800  0.00000
   H03J	 0.00000  0.00000  0.00000  0.00000  0.00000  0.00000
   C03K	 0.11300  0.04900  0.05200  0.01100  0.02300  0.01100
   H03K	 0.00000  0.00000  0.00000  0.00000  0.00000  0.00000
   C03L	 0.14400  0.09900  0.05900  0.05800  0.01000 -0.02100
   H03L	 0.00000  0.00000  0.00000  0.00000  0.00000  0.00000
   C03M	 0.13900  0.09700  0.05500  0.00000  0.00900  0.00800
   C03N	 0.10500  0.07300  0.05800  0.02300  0.02400  0.02500
   H03N	 0.00000  0.00000  0.00000  0.00000  0.00000  0.00000
   C03O	 0.07100  0.07900  0.09300  0.00500  0.01100  0.03000
   H03O	 0.00000  0.00000  0.00000  0.00000  0.00000  0.00000
   C03P	 0.07300  0.07900  0.06900  0.01000  0.01900 -0.00400
   H03P	 0.00000  0.00000  0.00000  0.00000  0.00000  0.00000
   C03Q	 0.11700  0.05000  0.08000  0.02300 -0.02100  0.00300
   H03Q	 0.00000  0.00000  0.00000  0.00000  0.00000  0.00000
   C03R	 0.12800  0.07300  0.10000 -0.01300  0.02900 -0.04300
   H03R	 0.00000  0.00000  0.00000  0.00000  0.00000  0.00000
   C03S	 0.14900  0.07700  0.07700  0.05500  0.00800 -0.00800
   H03S	 0.00000  0.00000  0.00000  0.00000  0.00000  0.00000
   C03T	 0.11500  0.04600  0.08700  0.00500 -0.01600 -0.00200
   H03T	 0.00000  0.00000  0.00000  0.00000  0.00000  0.00000
   C03U	 0.12200  0.07700  0.05900 -0.01400  0.00500  0.01300
   H03U	 0.00000  0.00000  0.00000  0.00000  0.00000  0.00000
   C03V	 0.13000  0.06500  0.05300 -0.01100  0.00800  0.00300
   H03V	 0.00000  0.00000  0.00000  0.00000  0.00000  0.00000
   C03W	 0.08300  0.08300  0.07200  0.00300  0.02200 -0.02500
   H03W	 0.00000  0.00000  0.00000  0.00000  0.00000  0.00000
   C03X	 0.10700  0.08000  0.05800  0.00000 -0.01100  0.02100
   H03X	 0.00000  0.00000  0.00000  0.00000  0.00000  0.00000
   C03Y	 0.13500  0.08700  0.04100  0.04600  0.01100  0.00600
   H03Y	 0.00000  0.00000  0.00000  0.00000  0.00000  0.00000
   C03Z	 0.12200  0.09300  0.08600 -0.01200  0.05100 -0.01900
   H03Z	 0.00000  0.00000  0.00000  0.00000  0.00000  0.00000
   C040	 0.10200  0.04600  0.08500  0.01200  0.00300  0.00800
   H040	 0.00000  0.00000  0.00000  0.00000  0.00000  0.00000
   C041	 0.12500  0.10800  0.08200 -0.01600 -0.04000  0.03600
   H041	 0.00000  0.00000  0.00000  0.00000  0.00000  0.00000
   C042	 0.13000  0.07600  0.10500 -0.00200 -0.00400  0.04200
   H042	 0.00000  0.00000  0.00000  0.00000  0.00000  0.00000
   C043	 0.19400  0.07800  0.07700 -0.03600 -0.02400  0.03200
   H043	 0.00000  0.00000  0.00000  0.00000  0.00000  0.00000
   C046	 0.15400  0.07300  0.14700 -0.01500 -0.01200  0.05500
   H046	 0.00000  0.00000  0.00000  0.00000  0.00000  0.00000
