# CIF file generated by openbabel 2.4.90, see http://openbabel.sf.net
data_I
_chemical_name_common ''
_cell_length_a 14.76
_cell_length_b 14.768
_cell_length_c 14.7681
_cell_angle_alpha 119.862
_cell_angle_beta 119.897
_cell_angle_gamma 90.143
_space_group_name_H-M_alt 'P 1'
_space_group_name_Hall 'P 1'
loop_
    _symmetry_equiv_pos_as_xyz
    x,y,z
loop_
    _atom_site_label
    _atom_site_type_symbol
    _atom_site_fract_x
    _atom_site_fract_y
    _atom_site_fract_z
    _atom_site_occupancy
    H0      H    0.35303   0.07802   0.51815   1.000
    H1      H    0.61974   0.90632   0.45314   1.000
    H2      H    0.36220   0.83256   0.91250   1.000
    H3      H    0.90124   0.09010   0.17789   1.000
    H4      H    0.90032   0.71810   0.79734   1.000
    H5      H    0.43616   0.11376   0.71772   1.000
    H6      H    0.58136   0.17950   0.80582   1.000
    H7      H    0.36793   0.19980   0.97194   1.000
    H8      H    0.51405   0.26828   0.08675   1.000
    H9      H    0.61072   0.15655   0.03666   1.000
    H10     H    0.79357   0.08882   0.33134   1.000
    H11     H    0.63857   0.68019   0.61264   1.000
    H12     H    0.65815   0.98580   0.05245   1.000
    H13     H    0.83073   0.04282   0.22502   1.000
    H14     H    0.42614   0.02440   0.07097   1.000
    H15     H    0.77389   0.24798   0.36055   1.000
    H16     H    0.49736   0.08383   0.08066   1.000
    H17     H    0.85171   0.84583   0.82281   1.000
    H18     H    0.97406   0.97124   0.89668   1.000
    C19     C    0.44248   0.20626   0.05190   1.000
    C20     C    0.29161   0.00063   0.97646   1.000
    C21     C    0.68647   0.69736   0.68578   1.000
    C22     C    0.57825   0.99485   0.58578   1.000
    C23     C    0.39234   0.00155   0.97569   1.000
    C24     C    0.39517   0.99037   0.38598   1.000
    C25     C    0.58118   0.98786   0.97452   1.000
    C26     C    0.50308   0.04475   0.60773   1.000
    C27     C    0.46147   0.09631   0.01114   1.000
    C28     C    0.46985   0.93966   0.36368   1.000
    C29     C    0.55463   0.08575   0.00923   1.000
    C30     C    0.51113   0.89261   0.93723   1.000
    C31     C    0.41304   0.04084   0.50571   1.000
    C32     C    0.55979   0.94351   0.46568   1.000
    C33     C    0.41821   0.90326   0.93965   1.000
    C34     C    0.51363   0.09953   0.73178   1.000
    C35     C    0.72229   0.83032   0.81137   1.000
    C36     C    0.51762   0.01231   0.58913   1.000
    C37     C    0.66117   0.71827   0.77640   1.000
    C38     C    0.70112   0.14497   0.31405   1.000
    C39     C    0.46689   0.11253   0.92637   1.000
    C40     C    0.94263   0.80205   0.91691   1.000
    C41     C    0.09501   0.90029   0.91361   1.000
    C42     C    0.62937   0.60210   0.50835   1.000
    C43     C    0.48566   0.96124   0.95364   1.000
    C44     C    0.84065   0.05150   0.16435   1.000
    O45     O    0.04068   0.95225   0.88625   1.000
    O46     O    0.25370   0.92284   0.97724   1.000
    O47     O    0.72883   0.73706   0.80299   1.000
    O48     O    0.25082   0.07719   0.97810   1.000
    O49     O    0.72431   0.73669   0.64651   1.000
    O50     O    0.92760   0.06430   0.12388   1.000
    O51     O    0.92636   0.79837   0.85078   1.000
    O52     O    0.84360   0.94945   0.88927   1.000
    O53     O    0.76944   0.05780   0.33739   1.000
loop_
    _geom_bond_atom_site_label_1
    _geom_bond_atom_site_label_2
    _geom_bond_distance
    _geom_bond_site_symmetry_2
    _ccdc_geom_bond_type
    C29    C27       1.39686      .   S
    C29    H9        1.08734      .   S
    C29    C39       1.49516  1_554   S
    C29    C25       1.40404  1_544   S
    C27    H16       1.00764      .   S
    C27    C39       1.42455  1_554   S
    C27    C23       1.41575  1_554   S
    C19    H8        1.09702      .   S
    C19    C39       1.89621  1_554   S
    C19    H7        1.09831  1_554   S
    H12    C25       1.16097  1_554   S
    H14    C23       1.08133  1_554   S
    C44    H3        0.93297      .   S
    C44    H13       1.04202      .   S
    C38    H15       1.46823      .   S
    C28    C24       1.41588      .   S
    C28    C32       1.39838      .   S
    C24    C31       1.40473  1_565   S
    H1     C32       1.08785      .   S
    C32    C22       1.40463      .   S
    C31    H0        1.08811      .   S
    C31    C26       1.39872      .   S
    C22    C36       0.94989  1_565   S
    C36    C26       0.52847      .   S
    C26    C34       1.50797      .   S
    H11    C21       0.83422      .   S
    O49    C21       1.28154      .   S
    C21    O47       1.28046      .   S
    H5     C34       1.09669      .   S
    C34    H6        1.09918      .   S
    C37    O47       0.85308      .   S
    H4     O51       0.96928      .   S
    O51    C40       0.85303      .   S
    O45    C41       1.17645      .   S
    H2     C33       1.08753      .   S
    C30    C33       1.39691      .   S
    C30    C43       1.03696      .   S
    C33    C43       1.17545      .   S
    C33    C23       1.40431  1_565   S
    C43    C25       1.29625      .   S
    C23    C20       1.49255      .   S
    C20    O46       1.28428  1_545   S
    C20    O48       1.27753      .   S
    O45    H18       1.08568  1_455   S
    O47    C35       1.32829      .   S
    O49    H11       1.22314      .   S
    O49    C42       1.78177      .   S
    O50    H3        0.96965      .   S
    O50    C44       1.70762      .   S
    O51    H17       1.30931      .   S
    O52    H17       1.39348      .   S
    O53    H10       0.64527      .   S
    O53    C38       1.70154      .   S
