# CIF file generated by openbabel 2.4.90, see http://openbabel.sf.net
data_I
_chemical_name_common ''
_cell_length_a 14.76
_cell_length_b 14.768
_cell_length_c 14.7681
_cell_angle_alpha 119.862
_cell_angle_beta 119.897
_cell_angle_gamma 90.143
_space_group_name_H-M_alt 'P 1'
_space_group_name_Hall 'P 1'
loop_
    _symmetry_equiv_pos_as_xyz
    x,y,z
loop_
    _atom_site_label
    _atom_site_type_symbol
    _atom_site_fract_x
    _atom_site_fract_y
    _atom_site_fract_z
    _atom_site_occupancy
    H0      H    0.00914   0.17003   0.35988   1.000
    Zr1     Zr   0.70288   0.81056   0.38102   1.000
    H2      H    0.90735   0.83093   0.45317   1.000
    H3      H    0.16317   0.63409   0.70597   1.000
    H4      H    0.13211   0.40869   0.99191   1.000
    H5      H    0.83259   0.37884   0.26540   1.000
    H6      H    0.80257   0.02387   0.82193   1.000
    H7      H    0.13256   0.27620   0.72441   1.000
    H8      H    0.18762   0.21644   0.81151   1.000
    H9      H    0.05952   0.23642   0.77227   1.000
    H10     H    0.77169   0.48473   0.00935   1.000
    H11     H    0.85118   0.42458   0.08822   1.000
    H12     H    0.72059   0.47285   0.30481   1.000
    H13     H    0.75764   0.56147   0.46377   1.000
    H14     H    0.78605   0.61874   0.39772   1.000
    H15     H    0.22701   0.52836   0.99225   1.000
    H16     H    0.23004   0.66843   0.07325   1.000
    H17     H    0.14633   0.58233   0.90562   1.000
    H18     H    0.85997   0.59799   0.99680   1.000
    H19     H    0.23105   0.88835   0.20045   1.000
    H20     H    0.95236   0.27167   0.33209   1.000
    H21     H    0.18745   0.24262   0.05175   1.000
    H22     H    0.97505   0.91430   0.36281   1.000
    H23     H    0.05434   0.73913   0.16637   1.000
    H24     H    0.06121   0.02970   0.69812   1.000
    H25     H    0.94355   0.91201   0.52393   1.000
    H26     H    0.16542   0.13401   0.64593   1.000
    C27     C    0.78379   0.54616   0.40109   1.000
    C28     C    0.17681   0.58291   0.99068   1.000
    C29     C    0.99426   0.00382   0.68567   1.000
    C30     C    0.68081   0.99614   0.68670   1.000
    C31     C    0.99095   0.30867   0.99681   1.000
    C32     C    0.99973   0.30677   0.29574   1.000
    C33     C    0.00050   0.69733   0.99050   1.000
    C34     C    0.00034   0.98959   0.29022   1.000
    C35     C    0.29592   0.99371   0.28650   1.000
    C36     C    0.68561   0.99134   0.98132   1.000
    C37     C    0.29188   0.30953   0.28933   1.000
    C38     C    0.99341   0.70173   0.67748   1.000
    C39     C    0.99924   0.00407   0.58729   1.000
    C40     C    0.99027   0.40998   0.99724   1.000
    C41     C    0.00385   0.41159   0.39699   1.000
    C42     C    0.00280   0.59768   0.99340   1.000
    C43     C    0.99973   0.98781   0.39016   1.000
    C44     C    0.99163   0.60065   0.57470   1.000
    C45     C    0.94740   0.90298   0.46698   1.000
    C46     C    0.07301   0.45203   0.99366   1.000
    C47     C    0.90493   0.43636   0.36312   1.000
    C48     C    0.91980   0.55537   0.99649   1.000
    C49     C    0.05247   0.08870   0.51088   1.000
    C50     C    0.89503   0.52940   0.44832   1.000
    C51     C    0.09089   0.57658   0.60819   1.000
    C52     C    0.08299   0.54542   0.99245   1.000
    C53     C    0.94596   0.89121   0.36630   1.000
    C54     C    0.05409   0.10050   0.61168   1.000
    C55     C    0.10084   0.48373   0.52279   1.000
    C56     C    0.91067   0.46281   0.99938   1.000
    C57     C    0.81871   0.42710   0.00478   1.000
    C58     C    0.11131   0.21360   0.73648   1.000
    C59     C    0.99707   0.11114   0.29427   1.000
    C60     C    0.03690   0.44696   0.62813   1.000
    C61     C    0.90395   0.05042   0.51721   1.000
    C62     C    0.04069   0.44033   0.22695   1.000
    C63     C    0.82760   0.45914   0.40480   1.000
    C64     C    0.05375   0.33636   0.44424   1.000
    C65     C    0.06016   0.28752   0.51520   1.000
    C66     C    0.84584   0.64625   0.61851   1.000
    C67     C    0.57768   0.66286   0.35998   1.000
    C68     C    0.09418   0.40390   0.08531   1.000
    C69     C    0.98618   0.35272   0.48385   1.000
    C70     C    0.06841   0.46252   0.73421   1.000
    C71     C    0.09136   0.41910   0.61102   1.000
    C72     C    0.07895   0.30030   0.93710   1.000
    C73     C    0.93171   0.37003   0.06350   1.000
    C74     C    0.06160   0.67185   0.06915   1.000
    C75     C    0.85000   0.24341   0.07419   1.000
    C76     C    0.26277   0.11815   0.39174   1.000
    C77     C    0.72825   0.97157   0.68809   1.000
    C78     C    0.19797   0.18673   0.36683   1.000
    C79     C    0.83903   0.81694   0.09740   1.000
    C80     C    0.23343   0.05109   0.33740   1.000
    C81     C    0.13046   0.80357   0.03770   1.000
    C82     C    0.76527   0.88639   0.43547   1.000
    O83     O    0.04201   0.14912   0.08852   1.000
    O84     O    0.06910   0.08104   0.80290   1.000
    O85     O    0.72229   0.92098   0.64840   1.000
    O86     O    0.91437   0.26630   0.99563   1.000
    O87     O    0.07406   0.26390   0.33125   1.000
    O88     O    0.07447   0.73712   0.98657   1.000
    O89     O    0.92273   0.91436   0.17331   1.000
    O90     O    0.25833   0.07231   0.32612   1.000
    O91     O    0.72802   0.91670   0.98432   1.000
    O92     O    0.25489   0.26793   0.32749   1.000
    O93     O    0.07146   0.74005   0.79345   1.000
    O94     O    0.25282   0.26804   0.17246   1.000
    O95     O    0.91659   0.74259   0.64339   1.000
    O96     O    0.72720   0.07181   0.98672   1.000
    O97     O    0.92252   0.73569   0.99027   1.000
    O98     O    0.07636   0.06844   0.32826   1.000
    O99     O    0.25544   0.91888   0.16917   1.000
    O100    O    0.91559   0.92684   0.64643   1.000
    O101    O    0.72244   0.07324   0.80361   1.000
    O102    O    0.91956   0.26530   0.17953   1.000
    O103    O    0.06809   0.26948   0.99539   1.000
    O104    O    0.85444   0.84910   0.41320   1.000
    O105    O    0.21332   0.16325   0.33043   1.000
    O106    O    0.30464   0.28626   0.15184   1.000
    O107    O    0.22003   0.29244   0.13654   1.000
    O108    O    0.00371   0.39229   0.50897   1.000
    O109    O    0.02784   0.23610   0.72436   1.000
    O110    O    0.78217   0.64116   0.45105   1.000
    O111    O    0.99116   0.39555   0.16655   1.000
    O112    O    0.01227   0.22404   0.02653   1.000
    O113    O    0.92760   0.38355   0.24967   1.000
    O114    O    0.77836   0.65045   0.26247   1.000
    O115    O    0.11286   0.71365   0.08487   1.000
    O116    O    0.10211   0.53783   0.66121   1.000
    O117    O    0.91532   0.38890   0.89751   1.000
    O118    O    0.81996   0.20583   0.93904   1.000
loop_
    _geom_bond_atom_site_label_1
    _geom_bond_atom_site_label_2
    _geom_bond_distance
    _geom_bond_site_symmetry_2
    _ccdc_geom_bond_type
    C57    H10       1.09681      .   S
    C57    C73       1.88080      .   S
    C57    H11       1.09843      .   S
    C57    C56       1.50766  1_554   S
    O112   O83       1.69281      .   S
    C81    O115      1.84817      .   S
    C81    O88       0.92309  1_554   S
    H21    O107      0.90605      .   S
    C73    O111      1.15056      .   S
    C73    O86       1.27671  1_554   S
    C74    O115      0.82908      .   S
    C74    H23       1.33916      .   S
    C74    C33       1.30251  1_554   S
    C74    C42       1.00582  1_554   S
    H16    C28       1.09802  1_554   S
    C75    O102      1.21824      .   S
    C75    O118      1.58160  1_554   S
    C68    C46       1.72393  1_554   S
    C68    C31       1.47700  1_454   S
    C68    C40       1.47659  1_454   S
    C79    O89       1.36281      .   S
    O107   O94       0.76209      .   S
    O106   O94       1.03098      .   S
    O111   C62       0.72634  1_655   S
    O99    H19       0.95853      .   S
    O99    C35       1.28000      .   S
    O89    C34       1.28036  1_655   S
    O102   C32       1.28292      .   S
    O114   Zr1       2.78077      .   S
    H5     C47       1.08761      .   S
    C35    O90       1.28377  1_565   S
    C37    O92       1.28176      .   S
    C34    C59       1.76764  1_465   S
    C34    O98       1.28227  1_565   S
    C34    C43       1.49365  1_455   S
    C59    O98       1.32388  1_655   S
    C59    H0        0.84556  1_655   S
    C32    O87       1.28063  1_655   S
    C32    H20       1.30194      .   S
    C32    C41       1.49656  1_655   S
    H12    C27       1.09717      .   S
    O90    C80       0.61109      .   S
    O105   C78       0.62989      .   S
    C80    C76       0.81993      .   S
    C67    Zr1       2.64604      .   S
    H22    C53       0.58486      .   S
    C47    C41       1.40450  1_655   S
    C47    C50       1.39825      .   S
    C53    C45       1.39732      .   S
    Zr1    C82       1.05283      .   S
    C43    C49       1.40351  1_665   S
    C41    C55       1.41633      .   S
    H14    O110      0.72014      .   S
    C27    C63       1.45311      .   S
    C27    O110      1.22489      .   S
    C27    H13       1.09779      .   S
    C63    C50       1.08312      .   S
    O104   H2        0.85414      .   S
    O104   C45       1.19388      .   S
    C64    C69       1.35551  1_455   S
    C50    C44       1.41688      .   S
    C45    H25       0.81511      .   S
    C45    C39       1.40309  1_565   S
    C69    O108      0.48344  1_655   S
    C69    C65       1.50973  1_655   S
    O108   C71       1.24957      .   S
    C49    C54       1.39753      .   S
    C61    C39       1.66645      .   S
    C55    C51       1.39854      .   S
    C44    C51       1.40455  1_655   S
    C44    C38       1.49554      .   S
    C39    C54       1.41630  1_655   S
    C39    C29       1.49268      .   S
    C51    O116      1.13379      .   S
    C51    H3        1.08771      .   S
    C71    C60       0.98981      .   S
    C54    H26       1.45568      .   S
    C54    C58       1.50852      .   S
    C66    O95       1.52953      .   S
    C60    O116      1.35567      .   S
    C60    C70       1.27991      .   S
    O95    C38       1.28066      .   S
    O100   C29       1.28184  1_565   S
    O85    C77       0.64936      .   S
    C38    O93       1.28269  1_655   S
    C29    H24       0.95040  1_655   S
    C29    O84       1.28030  1_655   S
    C30    C77       0.78529      .   S
    C30    O101      1.27914  1_565   S
    O109   C58       1.22553      .   S
    O109   H9        0.62140      .   S
    H7     C58       1.09690      .   S
    C58    H8        1.09886      .   S
    O101   H6        1.37308      .   S
    O117   C40       1.18634      .   S
    O117   C56       1.38841      .   S
    H17    C28       1.09833      .   S
    C72    O103      1.22529      .   S
    O118   O86       1.23588      .   S
    C36    O91       1.27799      .   S
    C36    O96       1.28399  1_565   S
    O88    C33       1.27852      .   S
    O97    C33       1.28334  1_655   S
    C28    H15       1.09681      .   S
    C28    C52       1.50715      .   S
    H4     C46       1.08630      .   S
    C52    C42       1.41672      .   S
    C52    C46       1.39654      .   S
    C42    C48       1.40486  1_455   S
    C46    C40       1.40468  1_455   S
    O103   C31       1.28327  1_455   S
    C48    H18       1.08626      .   S
    C48    C56       1.39692      .   S
    C40    C56       1.41673      .   S
    O84    H24       1.27843      .   S
    O85    C30       1.28460      .   S
    O86    C31       1.27884      .   S
    O86    O112      1.52204  1_656   S
    O87    C64       1.65570      .   S
    O88    O115      1.49351  1_556   S
    O90    C76       0.82760      .   S
    O90    O105      1.48679      .   S
    O92    O105      1.69025      .   S
    O94    H21       1.36626      .   S
    O94    C37       1.28057      .   S
    O99    C81       1.78713      .   S
    O101   C77       1.66366  1_545   S
    O101   O118      1.76703      .   S
    O102   O113      1.48724      .   S
    O103   C68       1.64736  1_556   S
    O103   O112      1.42219  1_556   S
    O104   Zr1       2.05390      .   S
    O104   H25       1.26650      .   S
    O104   C82       1.54868      .   S
    O105   C76       1.31921      .   S
    O105   C80       1.72742      .   S
    O106   O107      1.16564      .   S
    O107   C37       1.82373      .   S
    O112   C31       1.50469  1_454   S
