# CIF file generated by openbabel 2.4.90, see http://openbabel.sf.net
data_I
_chemical_name_common ''
_cell_length_a 71.5169
_cell_length_b 71.4927
_cell_length_c 71.6087
_cell_angle_alpha 89.8315
_cell_angle_beta 90.1248
_cell_angle_gamma 89.8689
_space_group_name_H-M_alt 'P 1'
_space_group_name_Hall 'P 1'
loop_
    _symmetry_equiv_pos_as_xyz
    x,y,z
loop_
    _atom_site_label
    _atom_site_type_symbol
    _atom_site_fract_x
    _atom_site_fract_y
    _atom_site_fract_z
    _atom_site_occupancy
    N0      N    0.30311   0.85678   0.84276   1.000
    N1      N    0.30294   0.84441   0.85635   1.000
    C2      C    0.28860   0.84824   0.86787   1.000
    C3      C    0.27928   0.86393   0.86116   1.000
    C4      C    0.28898   0.86895   0.84519   1.000
    H5      H    0.28540   0.84026   0.88029   1.000
    H6      H    0.28606   0.88062   0.83601   1.000
    N7      N    0.34195   0.80585   0.85773   1.000
    N8      N    0.35539   0.80580   0.84512   1.000
    C9      C    0.36694   0.79128   0.84863   1.000
    C10     C    0.36048   0.78170   0.86421   1.000
    C11     C    0.34460   0.79142   0.86954   1.000
    H12     H    0.37915   0.78796   0.84042   1.000
    H13     H    0.33560   0.78830   0.88122   1.000
    N14     N    0.35627   0.34348   0.30375   1.000
    N15     N    0.35605   0.84478   0.80621   1.000
    N16     N    0.34232   0.85701   0.80578   1.000
    C17     C    0.34538   0.86942   0.79200   1.000
    C18     C    0.36193   0.86476   0.78314   1.000
    C19     C    0.36831   0.84896   0.79257   1.000
    H20     H    0.33621   0.88099   0.78872   1.000
    C21     C    0.79041   0.35011   0.86745   1.000
    C22     C    0.78144   0.36624   0.86135   1.000
    H23     H    0.87881   0.78834   0.33915   1.000
    H24     H    0.83507   0.78919   0.37972   1.000
    N25     N    0.34397   0.35711   0.30457   1.000
    C26     C    0.34687   0.36883   0.29003   1.000
    C27     C    0.36186   0.36209   0.27955   1.000
    C28     C    0.36730   0.34592   0.28883   1.000
    H29     H    0.33876   0.38134   0.28741   1.000
    H30     H    0.37868   0.33665   0.28536   1.000
    N31     N    0.30692   0.35716   0.34474   1.000
    N32     N    0.30716   0.34383   0.35741   1.000
    C33     C    0.29304   0.34648   0.36945   1.000
    C34     C    0.28321   0.36243   0.36424   1.000
    C35     C    0.29251   0.36881   0.34837   1.000
    H36     H    0.29036   0.33740   0.38121   1.000
    H37     H    0.38102   0.84122   0.78994   1.000
    H38     H    0.28917   0.38103   0.34009   1.000
    N39     N    0.34586   0.30525   0.35609   1.000
    N40     N    0.35811   0.30518   0.34238   1.000
    C41     C    0.37023   0.29102   0.34504   1.000
    C42     C    0.36549   0.28165   0.36128   1.000
    C43     C    0.34989   0.29108   0.36789   1.000
    H44     H    0.38180   0.28794   0.33589   1.000
    H45     H    0.34219   0.28808   0.38050   1.000
    N46     N    0.85715   0.34606   0.80482   1.000
    N47     N    0.84411   0.35901   0.80503   1.000
    C48     C    0.84722   0.37126   0.79112   1.000
    C49     C    0.86313   0.36582   0.78146   1.000
    C50     C    0.86904   0.34965   0.79067   1.000
    H51     H    0.83849   0.38327   0.78837   1.000
    H52     H    0.88108   0.34112   0.78744   1.000
    N53     N    0.80528   0.35935   0.84279   1.000
    N54     N    0.80474   0.34645   0.85585   1.000
    C55     C    0.79135   0.37168   0.84565   1.000
    H56     H    0.78688   0.34165   0.87946   1.000
    H57     H    0.78876   0.38381   0.83701   1.000
    N58     N    0.84252   0.30687   0.85589   1.000
    N59     N    0.85579   0.30663   0.84313   1.000
    C60     C    0.86702   0.29177   0.84635   1.000
    C61     C    0.86049   0.28218   0.86191   1.000
    C62     C    0.84493   0.29225   0.86751   1.000
    H63     H    0.87905   0.28823   0.83798   1.000
    H64     H    0.83605   0.28930   0.87933   1.000
    N65     N    0.85675   0.84623   0.30545   1.000
    N66     N    0.84370   0.85916   0.30580   1.000
    C67     C    0.84661   0.87142   0.29189   1.000
    C68     C    0.86243   0.86610   0.28207   1.000
    C69     C    0.86850   0.84991   0.29117   1.000
    H70     H    0.83778   0.88338   0.28926   1.000
    H71     H    0.88062   0.84150   0.28787   1.000
    N72     N    0.80429   0.85891   0.34287   1.000
    N73     N    0.80346   0.84582   0.35572   1.000
    C74     C    0.78857   0.84906   0.36676   1.000
    C75     C    0.77954   0.86507   0.36044   1.000
    C76     C    0.78999   0.87089   0.34525   1.000
    H77     H    0.78471   0.84041   0.37853   1.000
    H78     H    0.78755   0.88308   0.33667   1.000
    N79     N    0.84178   0.80673   0.35635   1.000
    N80     N    0.85529   0.80660   0.34381   1.000
    C81     C    0.86659   0.79183   0.34729   1.000
    C82     C    0.85983   0.78220   0.36274   1.000
    C83     C    0.84411   0.79217   0.36804   1.000
    N84     N    0.64188   0.65791   0.30517   1.000
    N85     N    0.65411   0.64420   0.30548   1.000
    C86     C    0.65031   0.63237   0.29138   1.000
    C87     C    0.63478   0.63904   0.28175   1.000
    C88     C    0.62992   0.65534   0.29093   1.000
    H89     H    0.65800   0.61966   0.28862   1.000
    H90     H    0.61832   0.66453   0.28780   1.000
    N91     N    0.69246   0.64244   0.34397   1.000
    N92     N    0.69312   0.65506   0.35727   1.000
    C93     C    0.70762   0.65112   0.36867   1.000
    C94     C    0.71656   0.63515   0.36219   1.000
    C95     C    0.70648   0.63011   0.34645   1.000
    H96     H    0.71124   0.65924   0.38086   1.000
    H97     H    0.70908   0.61831   0.33744   1.000
    N98     N    0.65522   0.69497   0.35773   1.000
    N99     N    0.64273   0.69566   0.34416   1.000
    C100    C    0.63090   0.70991   0.34725   1.000
    C101    C    0.63597   0.71872   0.36364   1.000
    C102    C    0.65157   0.70890   0.36988   1.000
    H103    H    0.61924   0.71343   0.33830   1.000
    H104    H    0.65937   0.71139   0.38257   1.000
    N105    N    0.64083   0.15515   0.80714   1.000
    N106    N    0.65506   0.14366   0.80554   1.000
    C107    C    0.65171   0.13196   0.79114   1.000
    C108    C    0.63439   0.13649   0.78330   1.000
    C109    C    0.62806   0.15132   0.79399   1.000
    H110    H    0.66119   0.12103   0.78676   1.000
    H111    H    0.61517   0.15904   0.79238   1.000
    N112    N    0.69498   0.14594   0.84276   1.000
    N113    N    0.69548   0.15978   0.85479   1.000
    C114    C    0.70969   0.15706   0.86679   1.000
    C115    C    0.71873   0.14053   0.86223   1.000
    C116    C    0.70894   0.13386   0.84683   1.000
    H117    H    0.71311   0.16656   0.87798   1.000
    H118    H    0.71172   0.12118   0.83913   1.000
    N119    N    0.65571   0.19667   0.85547   1.000
    N120    N    0.64093   0.19407   0.84480   1.000
    C121    C    0.62772   0.20666   0.84928   1.000
    C122    C    0.63438   0.21777   0.86358   1.000
    C123    C    0.65225   0.21102   0.86715   1.000
    H124    H    0.61428   0.20773   0.84247   1.000
    H125    H    0.66191   0.21592   0.87768   1.000
    N126    N    0.14428   0.65580   0.80429   1.000
    N127    N    0.15746   0.64298   0.80449   1.000
    C128    C    0.15491   0.63128   0.79007   1.000
    C129    C    0.13925   0.63694   0.78018   1.000
    C130    C    0.13278   0.65258   0.78970   1.000
    H131    H    0.16369   0.61932   0.78716   1.000
    H132    H    0.12068   0.66103   0.78629   1.000
    N133    N    0.19622   0.64218   0.84235   1.000
    N134    N    0.19669   0.65480   0.85561   1.000
    C135    C    0.21132   0.65124   0.86694   1.000
    C136    C    0.22061   0.63552   0.86037   1.000
    C137    C    0.21058   0.63022   0.84469   1.000
    H138    H    0.21475   0.65943   0.87913   1.000
    H139    H    0.21342   0.61845   0.83569   1.000
    N140    N    0.15820   0.69368   0.85644   1.000
    N141    N    0.14490   0.69411   0.84363   1.000
    C142    C    0.13351   0.70875   0.84714   1.000
    C143    C    0.13999   0.71799   0.86290   1.000
    C144    C    0.15564   0.70794   0.86837   1.000
    H145    H    0.12145   0.71245   0.83878   1.000
    H146    H    0.16446   0.71066   0.88031   1.000
    N147    N    0.13827   0.15313   0.30713   1.000
    N148    N    0.15350   0.14365   0.30322   1.000
    C149    C    0.15077   0.13407   0.28728   1.000
    C150    C    0.13281   0.13782   0.28086   1.000
    C151    C    0.12532   0.14997   0.29390   1.000
    H152    H    0.16104   0.12497   0.28094   1.000
    H153    H    0.11137   0.15582   0.29404   1.000
    N154    N    0.19336   0.14294   0.33995   1.000
    N155    N    0.19456   0.15609   0.35267   1.000
    C156    C    0.20876   0.15197   0.36438   1.000
    C157    C    0.21686   0.13520   0.35877   1.000
    C158    C    0.20662   0.12996   0.34317   1.000
    H159    H    0.21279   0.16058   0.37609   1.000
    H160    H    0.20857   0.11764   0.33470   1.000
    N161    N    0.15462   0.19269   0.35598   1.000
    N162    N    0.13875   0.18853   0.34758   1.000
    C163    C    0.12570   0.20118   0.35231   1.000
    C164    C    0.13359   0.21405   0.36439   1.000
    C165    C    0.15203   0.20814   0.36643   1.000
    H166    H    0.11158   0.20114   0.34691   1.000
    H167    H    0.16284   0.21462   0.37474   1.000
    N168    N    0.64173   0.34241   0.69350   1.000
    N169    N    0.65434   0.35576   0.69355   1.000
    C170    C    0.65040   0.36775   0.70755   1.000
    C171    C    0.63444   0.36155   0.71674   1.000
    C172    C    0.62945   0.34540   0.70735   1.000
    H173    H    0.65844   0.38013   0.71069   1.000
    H174    H    0.61774   0.33637   0.71033   1.000
    N175    N    0.69349   0.35648   0.65535   1.000
    N176    N    0.69397   0.34318   0.64273   1.000
    C177    C    0.70787   0.34654   0.63065   1.000
    C178    C    0.71674   0.36292   0.63572   1.000
    C179    C    0.70725   0.36885   0.65159   1.000
    H180    H    0.71121   0.33763   0.61897   1.000
    H181    H    0.70995   0.38136   0.65959   1.000
    N182    N    0.65722   0.30311   0.64331   1.000
    N183    N    0.64389   0.30285   0.65598   1.000
    C184    C    0.63272   0.28804   0.65275   1.000
    C185    C    0.63934   0.27853   0.63724   1.000
    C186    C    0.65491   0.28855   0.63170   1.000
    H187    H    0.62057   0.28458   0.66099   1.000
    H188    H    0.66373   0.28572   0.61982   1.000
    N189    N    0.64448   0.84553   0.19711   1.000
    N190    N    0.65791   0.85800   0.19663   1.000
    C191    C    0.65575   0.86991   0.21095   1.000
    C192    C    0.64012   0.86470   0.22107   1.000
    C193    C    0.63332   0.84908   0.21182   1.000
    H194    H    0.66476   0.88170   0.21359   1.000
    H195    H    0.62113   0.84094   0.21540   1.000
    N196    N    0.69462   0.85817   0.15691   1.000
    N197    N    0.69410   0.84588   0.14332   1.000
    C198    C    0.70791   0.84976   0.13111   1.000
    C199    C    0.71754   0.86540   0.13738   1.000
    C200    C    0.70867   0.87022   0.15383   1.000
    H201    H    0.71052   0.84195   0.11849   1.000
    H202    H    0.71207   0.88175   0.16290   1.000
    N203    N    0.65489   0.80749   0.14439   1.000
    N204    N    0.64250   0.80748   0.15802   1.000
    C205    C    0.63046   0.79330   0.15536   1.000
    C206    C    0.63537   0.78383   0.13925   1.000
    C207    C    0.65099   0.79327   0.13269   1.000
    H208    H    0.61890   0.79018   0.16452   1.000
    H209    H    0.65885   0.79016   0.12022   1.000
    N210    N    0.14330   0.34329   0.19492   1.000
    N211    N    0.15618   0.35636   0.19461   1.000
    C212    C    0.15355   0.36778   0.20939   1.000
    C213    C    0.13820   0.36140   0.21946   1.000
    C214    C    0.13214   0.34586   0.20974   1.000
    H215    H    0.16217   0.37974   0.21262   1.000
    H216    H    0.12026   0.33715   0.21299   1.000
    N217    N    0.19401   0.35602   0.15514   1.000
    N218    N    0.19374   0.34300   0.14222   1.000
    C219    C    0.20823   0.34557   0.13055   1.000
    C220    C    0.21829   0.36108   0.13635   1.000
    C221    C    0.20878   0.36734   0.15206   1.000
    H222    H    0.21108   0.33682   0.11863   1.000
    H223    H    0.21236   0.37921   0.16065   1.000
    N224    N    0.15416   0.30513   0.14258   1.000
    N225    N    0.14158   0.30532   0.15600   1.000
    C226    C    0.12937   0.29131   0.15322   1.000
    C227    C    0.13439   0.28172   0.13722   1.000
    C228    C    0.15025   0.29091   0.13087   1.000
    H229    H    0.11765   0.28837   0.16222   1.000
    H230    H    0.15826   0.28764   0.11853   1.000
    N231    N    0.14456   0.84429   0.69434   1.000
    N232    N    0.15762   0.85717   0.69351   1.000
    C233    C    0.15530   0.86920   0.70773   1.000
    C234    C    0.13994   0.86365   0.71813   1.000
    C235    C    0.13349   0.84773   0.70914   1.000
    H236    H    0.16413   0.88117   0.71024   1.000
    H237    H    0.12167   0.83920   0.71304   1.000
    N238    N    0.19575   0.85601   0.65479   1.000
    N239    N    0.19561   0.84264   0.64228   1.000
    C240    C    0.21014   0.84485   0.63066   1.000
    C241    C    0.22011   0.86048   0.63610   1.000
    C242    C    0.21052   0.86725   0.65152   1.000
    H243    H    0.21308   0.83576   0.61901   1.000
    H244    H    0.21405   0.87937   0.65979   1.000
    N245    N    0.15679   0.80470   0.64334   1.000
    N246    N    0.14378   0.80475   0.65636   1.000
    C247    C    0.13232   0.79005   0.65350   1.000
    C248    C    0.13854   0.78029   0.63794   1.000
    C249    C    0.15401   0.79011   0.63192   1.000
    H250    H    0.12047   0.78659   0.66218   1.000
    H251    H    0.16261   0.78696   0.61996   1.000
    N252    N    0.35577   0.65388   0.69504   1.000
    N253    N    0.34106   0.64294   0.69533   1.000
    C254    C    0.34277   0.63073   0.70959   1.000
    C255    C    0.35947   0.63426   0.71882   1.000
    C256    C    0.36732   0.64908   0.70911   1.000
    H257    H    0.33255   0.62018   0.71302   1.000
    H258    H    0.38041   0.65599   0.71204   1.000
    N259    N    0.30413   0.64647   0.65580   1.000
    N260    N    0.30447   0.66033   0.64375   1.000
    C261    C    0.29089   0.65784   0.63098   1.000
    C262    C    0.28147   0.64141   0.63517   1.000
    C263    C    0.29035   0.63459   0.65104   1.000
    H264    H    0.28804   0.66745   0.61965   1.000
    H265    H    0.28703   0.62199   0.65870   1.000
    N266    N    0.34453   0.69668   0.64634   1.000
    N267    N    0.35863   0.69381   0.65790   1.000
    C268    C    0.37200   0.70657   0.65448   1.000
    C269    C    0.36610   0.71807   0.64001   1.000
    C270    C    0.34859   0.71131   0.63519   1.000
    H271    H    0.38510   0.70736   0.66197   1.000
    H272    H    0.33942   0.71660   0.62438   1.000
    N273    N    0.35702   0.15722   0.19207   1.000
    N274    N    0.34455   0.14375   0.19211   1.000
    C275    C    0.34845   0.13192   0.20632   1.000
    C276    C    0.36426   0.13833   0.21564   1.000
    C277    C    0.36919   0.15447   0.20613   1.000
    H278    H    0.34051   0.11947   0.20949   1.000
    H279    H    0.38081   0.16361   0.20911   1.000
    N280    N    0.30442   0.14361   0.15488   1.000
    N281    N    0.30358   0.15703   0.14233   1.000
    C282    C    0.28863   0.15440   0.13131   1.000
    C283    C    0.27937   0.13846   0.13714   1.000
    C284    C    0.28986   0.13191   0.15218   1.000
    H285    H    0.28495   0.16340   0.11973   1.000
    H286    H    0.28707   0.11964   0.16056   1.000
    N287    N    0.34144   0.19615   0.14131   1.000
    N288    N    0.35492   0.19632   0.15388   1.000
    C289    C    0.36618   0.21102   0.15048   1.000
    C290    C    0.35946   0.22059   0.13499   1.000
    C291    C    0.34374   0.21069   0.12959   1.000
    H292    H    0.37837   0.21445   0.15870   1.000
    H293    H    0.33468   0.21372   0.11788   1.000
    N294    N    0.85588   0.65487   0.19673   1.000
    N295    N    0.84064   0.64480   0.19837   1.000
    C296    C    0.84256   0.63293   0.21284   1.000
    C297    C    0.86002   0.63569   0.22082   1.000
    C298    C    0.86806   0.64979   0.21018   1.000
    H299    H    0.83200   0.62302   0.21714   1.000
    H300    H    0.88179   0.65583   0.21195   1.000
    N301    N    0.80420   0.64485   0.15931   1.000
    N302    N    0.80500   0.65663   0.14523   1.000
    C303    C    0.79231   0.65156   0.13227   1.000
    C304    C    0.78317   0.63561   0.13855   1.000
    C305    C    0.79116   0.63181   0.15580   1.000
    H306    H    0.79002   0.65891   0.11924   1.000
    H307    H    0.78764   0.62057   0.16529   1.000
    N308    N    0.84449   0.69410   0.14489   1.000
    N309    N    0.85837   0.69244   0.15696   1.000
    C310    C    0.87133   0.70550   0.15317   1.000
    C311    C    0.86545   0.71596   0.13792   1.000
    C312    C    0.84833   0.70825   0.13305   1.000
    H313    H    0.88401   0.70737   0.16114   1.000
    H314    H    0.83924   0.71261   0.12178   1.000
    N315    N    0.85924   0.15555   0.68995   1.000
    N316    N    0.84498   0.14425   0.69238   1.000
    C317    C    0.84788   0.13403   0.70797   1.000
    C318    C    0.86492   0.13923   0.71572   1.000
    C319    C    0.87171   0.15289   0.70377   1.000
    H320    H    0.83825   0.12370   0.71331   1.000
    H321    H    0.88479   0.16035   0.70489   1.000
    N322    N    0.80427   0.14546   0.65599   1.000
    N323    N    0.80184   0.16078   0.64608   1.000
    C324    C    0.78715   0.15858   0.63459   1.000
    C325    C    0.77992   0.14080   0.63721   1.000
    C326    C    0.79116   0.13288   0.65101   1.000
    H327    H    0.78219   0.16925   0.62506   1.000
    H328    H    0.79000   0.11899   0.65689   1.000
    N329    N    0.83978   0.19878   0.64580   1.000
    N330    N    0.85634   0.19472   0.65288   1.000
    C331    C    0.86863   0.20793   0.64756   1.000
    C332    C    0.85936   0.22090   0.63644   1.000
    C333    C    0.84107   0.21460   0.63568   1.000
    H334    H    0.88327   0.20792   0.65134   1.000
    H335    H    0.82953   0.22085   0.62813   1.000
    N336    N    0.34601   0.35548   0.69669   1.000
    N337    N    0.35907   0.34257   0.69585   1.000
    C338    C    0.37113   0.34501   0.71006   1.000
    C339    C    0.36535   0.36026   0.72047   1.000
    C340    C    0.34932   0.36657   0.71150   1.000
    H341    H    0.38325   0.33635   0.71255   1.000
    H342    H    0.34066   0.37832   0.71538   1.000
    N343    N    0.35889   0.30539   0.65656   1.000
    N344    N    0.34589   0.30524   0.64358   1.000
    C345    C    0.34931   0.29100   0.63176   1.000
    C346    C    0.36541   0.28168   0.63765   1.000
    C347    C    0.37098   0.29134   0.65349   1.000
    H348    H    0.34072   0.28780   0.61977   1.000
    H349    H    0.38297   0.28850   0.66220   1.000
    N350    N    0.30663   0.34372   0.64515   1.000
    N351    N    0.30682   0.35630   0.65860   1.000
    C352    C    0.29227   0.36802   0.65627   1.000
    C353    C    0.28230   0.36267   0.64059   1.000
    C354    C    0.29186   0.34717   0.63389   1.000
    H355    H    0.28926   0.37969   0.66532   1.000
    H356    H    0.28831   0.33893   0.62178   1.000
    N357    N    0.34291   0.85939   0.19407   1.000
    N358    N    0.35651   0.84703   0.19471   1.000
    C359    C    0.36799   0.85121   0.20902   1.000
    C360    C    0.36127   0.86713   0.21792   1.000
    C361    C    0.34523   0.87183   0.20793   1.000
    H362    H    0.38036   0.84326   0.21256   1.000
    H363    H    0.33593   0.88349   0.21034   1.000
    N364    N    0.35913   0.80677   0.15830   1.000
    N365    N    0.34651   0.80539   0.14503   1.000
    C366    C    0.35067   0.79067   0.13414   1.000
    C367    C    0.36688   0.78222   0.14086   1.000
    C368    C    0.37177   0.79292   0.15631   1.000
    H369    H    0.34245   0.78661   0.12216   1.000
    H370    H    0.38373   0.79098   0.16535   1.000
    N371    N    0.30586   0.84209   0.14241   1.000
    N372    N    0.30493   0.85568   0.15479   1.000
    C373    C    0.28999   0.86651   0.15089   1.000
    C374    C    0.28101   0.85944   0.13526   1.000
    C375    C    0.29153   0.84392   0.13031   1.000
    H376    H    0.28597   0.87866   0.15887   1.000
    H377    H    0.28908   0.83473   0.11861   1.000
    N378    N    0.84503   0.35825   0.19595   1.000
    N379    N    0.85794   0.34521   0.19667   1.000
    C380    C    0.86966   0.34898   0.21096   1.000
    C381    C    0.86372   0.36538   0.21965   1.000
    C382    C    0.84798   0.37071   0.20961   1.000
    H383    H    0.88168   0.34052   0.21456   1.000
    H384    H    0.83931   0.38288   0.21179   1.000
    N385    N    0.85877   0.30604   0.15883   1.000
    N386    N    0.84644   0.30594   0.14519   1.000
    C387    C    0.85030   0.29165   0.13360   1.000
    C388    C    0.86594   0.28220   0.14026   1.000
    C389    C    0.87089   0.29181   0.15634   1.000
    H390    H    0.84233   0.28852   0.12117   1.000
    H391    H    0.88255   0.28883   0.16548   1.000
    N392    N    0.80750   0.34469   0.14373   1.000
    N393    N    0.80726   0.35756   0.15688   1.000
    C394    C    0.79316   0.36955   0.15357   1.000
    C395    C    0.78398   0.36418   0.13747   1.000
    C396    C    0.79343   0.34825   0.13162   1.000
    H397    H    0.78991   0.38142   0.16226   1.000
    H398    H    0.79053   0.34008   0.11928   1.000
    N399    N    0.84335   0.85759   0.69246   1.000
    N400    N    0.85611   0.84435   0.69332   1.000
    C401    C    0.86786   0.84811   0.70759   1.000
    C402    C    0.86212   0.86460   0.71610   1.000
    C403    C    0.84648   0.87011   0.70604   1.000
    H404    H    0.87976   0.83954   0.71137   1.000
    H405    H    0.83795   0.88237   0.70830   1.000
    N406    N    0.85614   0.80413   0.65647   1.000
    N407    N    0.84337   0.80404   0.64326   1.000
    C408    C    0.84622   0.78938   0.63198   1.000
    C409    C    0.86161   0.77951   0.63835   1.000
    C410    C    0.86765   0.78935   0.65395   1.000
    H411    H    0.83777   0.78630   0.61986   1.000
    H412    H    0.87940   0.78592   0.66286   1.000
    N413    N    0.80518   0.84276   0.64118   1.000
    N414    N    0.80506   0.85635   0.65357   1.000
    C415    C    0.79083   0.86808   0.64961   1.000
    C416    C    0.78153   0.86155   0.63392   1.000
    C417    C    0.79106   0.84544   0.62904   1.000
    H418    H    0.78764   0.88055   0.65747   1.000
    H419    H    0.78810   0.83636   0.61739   1.000
    N420    N    0.65741   0.64502   0.69539   1.000
    N421    N    0.64437   0.65790   0.69384   1.000
    C422    C    0.63171   0.65542   0.70752   1.000
    C423    C    0.63705   0.64013   0.71827   1.000
    C424    C    0.65351   0.63395   0.71009   1.000
    H425    H    0.61935   0.66394   0.70926   1.000
    H426    H    0.66187   0.62203   0.71421   1.000
    N427    N    0.64456   0.69309   0.65228   1.000
    N428    N    0.65701   0.69153   0.63893   1.000
    C429    C    0.65386   0.70479   0.62595   1.000
    C430    C    0.63854   0.71535   0.63137   1.000
    C431    C    0.63300   0.70744   0.64819   1.000
    H432    H    0.66225   0.70664   0.61356   1.000
    H433    H    0.62152   0.71186   0.65692   1.000
    N434    N    0.69594   0.65342   0.64287   1.000
    N435    N    0.69694   0.64257   0.65779   1.000
    C436    C    0.71212   0.63146   0.65632   1.000
    C437    C    0.72087   0.63535   0.63955   1.000
    C438    C    0.71023   0.64930   0.63139   1.000
    H439    H    0.71632   0.62100   0.66646   1.000
    H440    H    0.71297   0.65615   0.61819   1.000
    N441    N    0.65821   0.14180   0.19648   1.000
    N442    N    0.64514   0.15469   0.19691   1.000
    C443    C    0.63381   0.15134   0.21155   1.000
    C444    C    0.64016   0.13542   0.22086   1.000
    C445    C    0.65575   0.12985   0.21076   1.000
    H446    H    0.62183   0.15984   0.21504   1.000
    H447    H    0.66462   0.11789   0.21335   1.000
    N448    N    0.64332   0.19339   0.15860   1.000
    N449    N    0.65546   0.19372   0.14485   1.000
    C450    C    0.65147   0.20830   0.13354   1.000
    C451    C    0.63597   0.21766   0.14057   1.000
    C452    C    0.63124   0.20769   0.15649   1.000
    H453    H    0.65935   0.21183   0.12116   1.000
    H454    H    0.61978   0.21054   0.16585   1.000
    N455    N    0.69456   0.15498   0.14324   1.000
    N456    N    0.69513   0.14219   0.15654   1.000
    C457    C    0.70928   0.13029   0.15318   1.000
    C458    C    0.71817   0.13565   0.13690   1.000
    C459    C    0.70846   0.15146   0.13099   1.000
    H460    H    0.71276   0.11849   0.16196   1.000
    H461    H    0.71111   0.15964   0.11857   1.000
    N462    N    0.15571   0.64123   0.19461   1.000
    N463    N    0.14308   0.65458   0.19482   1.000
    C464    C    0.13104   0.65122   0.20894   1.000
    C465    C    0.13648   0.63480   0.21805   1.000
    C466    C    0.15225   0.62901   0.20841   1.000
    H467    H    0.11920   0.66002   0.21221   1.000
    H468    H    0.16070   0.61675   0.21103   1.000
    N469    N    0.14447   0.69387   0.15667   1.000
    N470    N    0.15755   0.69365   0.14382   1.000
    C471    C    0.15493   0.70806   0.13203   1.000
    C472    C    0.13926   0.71807   0.13760   1.000
    C473    C    0.13299   0.70853   0.15339   1.000
    H474    H    0.16383   0.71082   0.12019   1.000
    H475    H    0.12098   0.71191   0.16187   1.000
    N476    N    0.19545   0.65417   0.14406   1.000
    N477    N    0.19491   0.64103   0.15698   1.000
    C478    C    0.20895   0.62886   0.15407   1.000
    C479    C    0.21890   0.63452   0.13849   1.000
    C480    C    0.20991   0.65069   0.13254   1.000
    H481    H    0.21157   0.61665   0.16259   1.000
    H482    H    0.21346   0.65921   0.12059   1.000
    N483    N    0.15416   0.14460   0.69585   1.000
    N484    N    0.14184   0.15821   0.69486   1.000
    C485    C    0.12952   0.15630   0.70896   1.000
    C486    C    0.13442   0.14060   0.71945   1.000
    C487    C    0.15021   0.13363   0.71057   1.000
    H488    H    0.11787   0.16564   0.71130   1.000
    H489    H    0.15822   0.12136   0.71427   1.000
    N490    N    0.14411   0.19466   0.65430   1.000
    N491    N    0.15717   0.19340   0.64150   1.000
    C492    C    0.15474   0.20708   0.62881   1.000
    C493    C    0.13919   0.21762   0.63376   1.000
    C494    C    0.13283   0.20921   0.65011   1.000
    H495    H    0.16362   0.20895   0.61679   1.000
    H496    H    0.12088   0.21327   0.65838   1.000
    N497    N    0.19420   0.15327   0.64455   1.000
    N498    N    0.19344   0.14095   0.65826   1.000
    C499    C    0.20733   0.12841   0.65608   1.000
    C500    C    0.21735   0.13298   0.64017   1.000
    C501    C    0.20858   0.14889   0.63328   1.000
    H502    H    0.20982   0.11671   0.66533   1.000
    H503    H    0.21226   0.15665   0.62087   1.000
    N504    N    0.34312   0.64361   0.30648   1.000
    N505    N    0.35618   0.65651   0.30630   1.000
    C506    C    0.36773   0.65323   0.29179   1.000
    C507    C    0.36152   0.63744   0.28236   1.000
    C508    C    0.34587   0.63178   0.29221   1.000
    H509    H    0.37966   0.66179   0.28828   1.000
    H510    H    0.33706   0.61988   0.28931   1.000
    N511    N    0.35719   0.69490   0.34517   1.000
    N512    N    0.34429   0.69481   0.35819   1.000
    C513    C    0.34763   0.70859   0.37040   1.000
    C514    C    0.36359   0.71811   0.36496   1.000
    C515    C    0.36928   0.70894   0.34875   1.000
    H516    H    0.33893   0.71131   0.38239   1.000
    H517    H    0.38132   0.71212   0.34024   1.000
    N518    N    0.30459   0.65776   0.35759   1.000
    N519    N    0.30423   0.64462   0.34474   1.000
    C520    C    0.28930   0.63354   0.34779   1.000
    C521    C    0.27981   0.64012   0.36330   1.000
    C522    C    0.28996   0.65547   0.36912   1.000
    H523    H    0.28554   0.62168   0.33927   1.000
    H524    H    0.28707   0.66419   0.38106   1.000
    N525    N    0.34382   0.14450   0.80655   1.000
    N526    N    0.35655   0.15772   0.80659   1.000
    C527    C    0.36834   0.15499   0.79226   1.000
    C528    C    0.36284   0.13917   0.78259   1.000
    C529    C    0.34714   0.13287   0.79213   1.000
    H530    H    0.38016   0.16384   0.78921   1.000
    H531    H    0.33876   0.12074   0.78890   1.000
    N532    N    0.35675   0.19680   0.84409   1.000
    N533    N    0.34405   0.19734   0.85729   1.000
    C534    C    0.34743   0.21210   0.86844   1.000
    C535    C    0.36316   0.22137   0.86186   1.000
    C536    C    0.36863   0.21119   0.84637   1.000
    H537    H    0.33906   0.21573   0.88044   1.000
    H538    H    0.38051   0.21389   0.83749   1.000
    N539    N    0.30534   0.15859   0.85829   1.000
    N540    N    0.30520   0.14523   0.84559   1.000
    C541    C    0.29067   0.13374   0.84903   1.000
    C542    C    0.28116   0.14015   0.86464   1.000
    C543    C    0.29095   0.15594   0.87008   1.000
    H544    H    0.28721   0.12166   0.84070   1.000
    H545    H    0.28791   0.16483   0.88186   1.000
    N546    N    0.84280   0.64103   0.80432   1.000
    N547    N    0.85509   0.65458   0.80314   1.000
    C548    C    0.86613   0.65149   0.78820   1.000
    C549    C    0.86035   0.63511   0.77956   1.000
    C550    C    0.84550   0.62892   0.79028   1.000
    H551    H    0.87745   0.66050   0.78392   1.000
    H552    H    0.83733   0.61641   0.78821   1.000
    N553    N    0.85595   0.69392   0.84066   1.000
    N554    N    0.84388   0.69404   0.85447   1.000
    C555    C    0.84764   0.70860   0.86575   1.000
    C556    C    0.86295   0.71818   0.85868   1.000
    C557    C    0.86780   0.70837   0.84272   1.000
    H558    H    0.83984   0.71183   0.87824   1.000
    H559    H    0.87923   0.71136   0.83336   1.000
    N560    N    0.80624   0.65426   0.85728   1.000
    N561    N    0.80647   0.64079   0.84473   1.000
    C562    C    0.79302   0.62834   0.84878   1.000
    C563    C    0.78378   0.63415   0.86464   1.000
    C564    C    0.79246   0.65073   0.86964   1.000
    H565    H    0.79008   0.61594   0.84071   1.000
    H566    H    0.78926   0.65930   0.88163   1.000
    N567    N    0.84649   0.14371   0.30522   1.000
    N568    N    0.85862   0.15747   0.30594   1.000
    C569    C    0.87108   0.15538   0.29200   1.000
    C570    C    0.86656   0.13944   0.28194   1.000
    C571    C    0.85081   0.13245   0.29081   1.000
    H572    H    0.88267   0.16471   0.28950   1.000
    H573    H    0.84304   0.12004   0.28719   1.000
    N574    N    0.85592   0.19473   0.34549   1.000
    N575    N    0.84284   0.19374   0.35830   1.000
    C576    C    0.84532   0.20762   0.37071   1.000
    C577    C    0.86085   0.21795   0.36550   1.000
    C578    C    0.86719   0.20930   0.34936   1.000
    H579    H    0.83650   0.20985   0.38272   1.000
    H580    H    0.87922   0.21316   0.34113   1.000
    N581    N    0.80586   0.15361   0.35601   1.000
    N582    N    0.80673   0.14096   0.34267   1.000
    C583    C    0.79275   0.12858   0.34509   1.000
    C584    C    0.78254   0.13364   0.36074   1.000
    C585    C    0.79133   0.14962   0.36724   1.000
    H586    H    0.79026   0.11672   0.33612   1.000
    H587    H    0.78758   0.15768   0.37941   1.000
    N588    N    0.65521   0.35598   0.30641   1.000
    N589    N    0.64298   0.34233   0.30598   1.000
    C590    C    0.63048   0.34557   0.29233   1.000
    C591    C    0.63510   0.36217   0.28337   1.000
    C592    C    0.65099   0.36838   0.29280   1.000
    H593    H    0.61897   0.33633   0.28923   1.000
    H594    H    0.65887   0.38098   0.29015   1.000
    N595    N    0.64207   0.30374   0.34334   1.000
    N596    N    0.65395   0.30359   0.35732   1.000
    C597    C    0.64926   0.28978   0.36924   1.000
    C598    C    0.63344   0.28077   0.36237   1.000
    C599    C    0.62933   0.29019   0.34587   1.000
    H600    H    0.65683   0.28669   0.38195   1.000
    H601    H    0.61800   0.28750   0.33626   1.000
    N602    N    0.69372   0.34126   0.35811   1.000
    N603    N    0.69415   0.35454   0.34527   1.000
    C604    C    0.70892   0.36573   0.34866   1.000
    C605    C    0.71827   0.35921   0.36440   1.000
    C606    C    0.70815   0.34365   0.36995   1.000
    H607    H    0.71257   0.37775   0.34025   1.000
    H608    H    0.71095   0.33476   0.38185   1.000
    N609    N    0.65594   0.85651   0.80544   1.000
    N610    N    0.64507   0.84180   0.80389   1.000
    C611    C    0.63265   0.84467   0.79007   1.000
    C612    C    0.63584   0.86217   0.78241   1.000
    C613    C    0.65082   0.86927   0.79251   1.000
    H614    H    0.62208   0.83470   0.78599   1.000
    H615    H    0.65728   0.88283   0.79087   1.000
    N616    N    0.64438   0.80342   0.84106   1.000
    N617    N    0.65501   0.80452   0.85598   1.000
    C618    C    0.64967   0.79137   0.86832   1.000
    C619    C    0.63481   0.78150   0.86074   1.000
    C620    C    0.63188   0.78960   0.84336   1.000
    H621    H    0.65599   0.78939   0.88191   1.000
    H622    H    0.62144   0.78582   0.83311   1.000
    N623    N    0.69343   0.84323   0.85802   1.000
    N624    N    0.69379   0.85655   0.84524   1.000
    C625    C    0.70818   0.86810   0.84894   1.000
    C626    C    0.71734   0.86175   0.86487   1.000
    C627    C    0.70753   0.84592   0.87016   1.000
    H628    H    0.71165   0.88025   0.84066   1.000
    H629    H    0.71039   0.83695   0.88197   1.000
    N630    N    0.15883   0.35816   0.80631   1.000
    N631    N    0.14522   0.34586   0.80586   1.000
    C632    C    0.13406   0.34963   0.79115   1.000
    C633    C    0.14101   0.36517   0.78183   1.000
    C634    C    0.15679   0.37015   0.79193   1.000
    H635    H    0.12175   0.34168   0.78756   1.000
    H636    H    0.16611   0.38170   0.78917   1.000
    N637    N    0.14208   0.30654   0.84345   1.000
    N638    N    0.15455   0.30536   0.85689   1.000
    C639    C    0.15036   0.29076   0.86800   1.000
    C640    C    0.13429   0.28218   0.86123   1.000
    C641    C    0.12952   0.29268   0.84554   1.000
    H642    H    0.15849   0.28683   0.88012   1.000
    H643    H    0.11774   0.29056   0.83634   1.000
    N644    N    0.19510   0.34205   0.85906   1.000
    N645    N    0.19619   0.35534   0.84629   1.000
    C646    C    0.21104   0.36624   0.85011   1.000
    C647    C    0.21980   0.35955   0.86609   1.000
    C648    C    0.20924   0.34416   0.87133   1.000
    H649    H    0.21510   0.37821   0.84186   1.000
    H650    H    0.21155   0.33522   0.88330   1.000
    N651    N    0.15256   0.85532   0.30531   1.000
    N652    N    0.14026   0.84175   0.30652   1.000
    C653    C    0.12761   0.84373   0.29269   1.000
    C654    C    0.13218   0.85943   0.28222   1.000
    C655    C    0.14816   0.86637   0.29071   1.000
    H656    H    0.11586   0.83452   0.29054   1.000
    H657    H    0.15601   0.87862   0.28672   1.000
    N658    N    0.14415   0.80425   0.34588   1.000
    N659    N    0.15777   0.80494   0.35817   1.000
    C660    C    0.15602   0.79060   0.37023   1.000
    C661    C    0.14038   0.78020   0.36532   1.000
    C662    C    0.13325   0.78939   0.34969   1.000
    H663    H    0.16545   0.78814   0.38178   1.000
    H664    H    0.12097   0.78571   0.34172   1.000
    N665    N    0.19425   0.84555   0.35545   1.000
    N666    N    0.19295   0.85828   0.34214   1.000
    C667    C    0.20674   0.87087   0.34440   1.000
    C668    C    0.21728   0.86588   0.35991   1.000
    C669    C    0.20889   0.84970   0.36651   1.000
    H670    H    0.20880   0.88290   0.33548   1.000
    H671    H    0.21301   0.84159   0.37858   1.000
    O672    O    0.06562   0.01708   0.09181   1.000
    O673    O    0.08725   0.01691   0.11379   1.000
    C674    C    0.07225   0.02358   0.10692   1.000
    C675    C    0.06292   0.03956   0.11624   1.000
    C676    C    0.07079   0.04731   0.13242   1.000
    H677    H    0.08304   0.04088   0.13866   1.000
    O678    O    0.93105   0.98206   0.09195   1.000
    O679    O    0.90896   0.98225   0.11337   1.000
    C680    C    0.92413   0.97559   0.10697   1.000
    C681    C    0.93352   0.95967   0.11658   1.000
    C682    C    0.92587   0.95173   0.13290   1.000
    H683    H    0.91333   0.95764   0.13897   1.000
    O684    O    0.01754   0.09320   0.06590   1.000
    O685    O    0.01781   0.11512   0.08750   1.000
    C686    C    0.02430   0.10823   0.07249   1.000
    C687    C    0.04035   0.11732   0.06298   1.000
    C688    C    0.04855   0.13355   0.07045   1.000
    H689    H    0.04272   0.13989   0.08287   1.000
    O690    O    0.97972   0.90582   0.06684   1.000
    O691    O    0.97909   0.88420   0.08885   1.000
    C692    C    0.97291   0.89085   0.07355   1.000
    C693    C    0.95720   0.88155   0.06377   1.000
    C694    C    0.94908   0.86522   0.07113   1.000
    H695    H    0.95474   0.85897   0.08374   1.000
    O696    O    0.09326   0.06587   0.01740   1.000
    O697    O    0.11539   0.08730   0.01763   1.000
    C698    C    0.10845   0.07225   0.02404   1.000
    C699    C    0.11773   0.06238   0.03978   1.000
    C700    C    0.13447   0.06923   0.04751   1.000
    H701    H    0.14112   0.08142   0.04146   1.000
    O702    O    0.90638   0.93308   0.01627   1.000
    O703    O    0.88417   0.91174   0.01601   1.000
    C704    C    0.89106   0.92672   0.02256   1.000
    C705    C    0.88152   0.93627   0.03822   1.000
    C706    C    0.86533   0.92843   0.04597   1.000
    H707    H    0.85924   0.91607   0.03972   1.000
    O708    O    0.98049   0.06828   0.09148   1.000
    O709    O    0.98069   0.09007   0.11320   1.000
    C710    C    0.97407   0.07498   0.10659   1.000
    C711    C    0.95831   0.06543   0.11614   1.000
    C712    C    0.95043   0.07296   0.13248   1.000
    H713    H    0.95624   0.08558   0.13847   1.000
    O714    O    0.01636   0.93104   0.09249   1.000
    O715    O    0.01598   0.90942   0.11451   1.000
    C716    C    0.02266   0.92443   0.10775   1.000
    C717    C    0.03837   0.93398   0.11729   1.000
    C718    C    0.04633   0.92635   0.13361   1.000
    H719    H    0.04057   0.91369   0.13962   1.000
    O720    O    0.09129   0.97998   0.06704   1.000
    O721    O    0.11292   0.97993   0.08904   1.000
    C722    C    0.10638   0.97347   0.07387   1.000
    C723    C    0.11610   0.95785   0.06440   1.000
    C724    C    0.13315   0.95094   0.07138   1.000
    H725    H    0.13953   0.95746   0.08345   1.000
    O726    O    0.90632   0.01892   0.06561   1.000
    O727    O    0.88415   0.01931   0.08695   1.000
    C728    C    0.89114   0.02566   0.07190   1.000
    C729    C    0.88198   0.04151   0.06198   1.000
    C730    C    0.86568   0.04982   0.06923   1.000
    H731    H    0.85939   0.04425   0.08181   1.000
    O732    O    0.93273   0.09396   0.01557   1.000
    O733    O    0.91086   0.11574   0.01506   1.000
    C734    C    0.92590   0.10910   0.02188   1.000
    C735    C    0.93510   0.11865   0.03781   1.000
    C736    C    0.92714   0.13482   0.04559   1.000
    H737    H    0.91485   0.14099   0.03917   1.000
    O738    O    0.06565   0.90400   0.01900   1.000
    O739    O    0.08754   0.88223   0.01933   1.000
    C740    C    0.07232   0.88888   0.02561   1.000
    C741    C    0.06251   0.87939   0.04120   1.000
    C742    C    0.06958   0.86275   0.04906   1.000
    H743    H    0.08188   0.85623   0.04311   1.000
    O744    O    0.93157   0.01872   0.09158   1.000
    O745    O    0.90948   0.01901   0.11300   1.000
    C746    C    0.92476   0.02535   0.10655   1.000
    C747    C    0.93428   0.04109   0.11610   1.000
    C748    C    0.92669   0.04879   0.13244   1.000
    H749    H    0.91447   0.04244   0.13869   1.000
    O750    O    0.06546   0.98038   0.09236   1.000
    O751    O    0.08711   0.98031   0.11433   1.000
    C752    C    0.07200   0.97391   0.10759   1.000
    C753    C    0.06241   0.95825   0.11717   1.000
    C754    C    0.07010   0.95044   0.13348   1.000
    H755    H    0.08243   0.95666   0.13968   1.000
    O756    O    0.01626   0.90512   0.06730   1.000
    O757    O    0.01565   0.88347   0.08929   1.000
    C758    C    0.02238   0.88987   0.07417   1.000
    C759    C    0.03793   0.87987   0.06487   1.000
    C760    C    0.04512   0.86320   0.07245   1.000
    H761    H    0.03881   0.85728   0.08487   1.000
    O762    O    0.98089   0.09383   0.06573   1.000
    O763    O    0.98100   0.11570   0.08737   1.000
    C764    C    0.97449   0.10906   0.07225   1.000
    C765    C    0.95884   0.11867   0.06249   1.000
    C766    C    0.95062   0.13485   0.07007   1.000
    H767    H    0.95618   0.14074   0.08285   1.000
    O768    O    0.90760   0.06799   0.01538   1.000
    O769    O    0.88573   0.08978   0.01486   1.000
    C770    C    0.89239   0.07470   0.02161   1.000
    C771    C    0.88268   0.06538   0.03738   1.000
    C772    C    0.86643   0.07339   0.04486   1.000
    H773    H    0.86045   0.08576   0.03840   1.000
    O774    O    0.09116   0.92962   0.01906   1.000
    O775    O    0.11314   0.90794   0.01933   1.000
    C776    C    0.10639   0.92312   0.02558   1.000
    C777    C    0.11604   0.93311   0.04091   1.000
    C778    C    0.13304   0.92634   0.04817   1.000
    H779    H    0.13955   0.91413   0.04203   1.000
    O780    O    0.97982   0.93185   0.09189   1.000
    O781    O    0.97942   0.91025   0.11393   1.000
    C782    C    0.97319   0.92544   0.10705   1.000
    C783    C    0.95758   0.93527   0.11646   1.000
    C784    C    0.94980   0.92767   0.13274   1.000
    H785    H    0.95598   0.91528   0.13896   1.000
    O786    O    0.01705   0.06764   0.09152   1.000
    O787    O    0.01737   0.08946   0.11321   1.000
    C788    C    0.02364   0.07419   0.10662   1.000
    C789    C    0.03923   0.06432   0.11618   1.000
    C790    C    0.04739   0.07186   0.13238   1.000
    H791    H    0.04186   0.08465   0.13830   1.000
    O792    O    0.90594   0.98229   0.06585   1.000
    O793    O    0.88378   0.98254   0.08720   1.000
    C794    C    0.89065   0.97594   0.07224   1.000
    C795    C    0.88121   0.96022   0.06257   1.000
    C796    C    0.86498   0.95208   0.07012   1.000
    H797    H    0.85889   0.95770   0.08276   1.000
    O798    O    0.09173   0.01652   0.06674   1.000
    O799    O    0.11332   0.01632   0.08878   1.000
    C800    C    0.10694   0.02273   0.07348   1.000
    C801    C    0.11701   0.03802   0.06381   1.000
    C802    C    0.13384   0.04493   0.07116   1.000
    H803    H    0.13981   0.03859   0.08359   1.000
    O804    O    0.93127   0.90679   0.01683   1.000
    O805    O    0.90903   0.88547   0.01667   1.000
    C806    C    0.92421   0.89183   0.02333   1.000
    C807    C    0.93337   0.88212   0.03922   1.000
    C808    C    0.92544   0.86586   0.04682   1.000
    H809    H    0.91312   0.85984   0.04042   1.000
    O810    O    0.06760   0.09153   0.01706   1.000
    O811    O    0.08970   0.11297   0.01728   1.000
    C812    C    0.07438   0.10657   0.02357   1.000
    C813    C    0.06480   0.11637   0.03910   1.000
    C814    C    0.07270   0.13257   0.04678   1.000
    H815    H    0.08522   0.13845   0.04064   1.000
    C816    C    0.04704   0.04806   0.10830   1.000
    H817    H    0.04111   0.04237   0.09560   1.000
    C818    C    0.06330   0.06354   0.14046   1.000
    C819    C    0.94947   0.95137   0.10858   1.000
    H820    H    0.95524   0.95710   0.09581   1.000
    C821    C    0.93385   0.93559   0.14093   1.000
    C822    C    0.04853   0.10893   0.04720   1.000
    H823    H    0.04257   0.09622   0.04157   1.000
    C824    C    0.06483   0.14115   0.06253   1.000
    C825    C    0.94934   0.88976   0.04770   1.000
    H826    H    0.95531   0.90251   0.04211   1.000
    C827    C    0.93311   0.85738   0.06281   1.000
    C828    C    0.10921   0.04668   0.04797   1.000
    H829    H    0.09610   0.04156   0.04239   1.000
    C830    C    0.14261   0.06056   0.06319   1.000
    C831    C    0.88929   0.95226   0.04652   1.000
    H832    H    0.90200   0.95816   0.04083   1.000
    C833    C    0.85712   0.93603   0.06202   1.000
    C834    C    0.95020   0.04941   0.10817   1.000
    H835    H    0.95593   0.04374   0.09539   1.000
    C836    C    0.93453   0.06482   0.14065   1.000
    C837    C    0.04643   0.95003   0.10928   1.000
    H838    H    0.04064   0.95577   0.09650   1.000
    C839    C    0.06232   0.93439   0.14167   1.000
    C840    C    0.10777   0.94896   0.04903   1.000
    H841    H    0.09450   0.95406   0.04374   1.000
    C842    C    0.14168   0.93518   0.06339   1.000
    C843    C    0.89029   0.04934   0.04595   1.000
    H844    H    0.90305   0.04330   0.04047   1.000
    C845    C    0.85796   0.06588   0.06085   1.000
    C846    C    0.95105   0.11080   0.04627   1.000
    H847    H    0.95705   0.09813   0.04055   1.000
    C848    C    0.93467   0.14294   0.06180   1.000
    C849    C    0.04659   0.88771   0.04912   1.000
    H850    H    0.04127   0.90071   0.04339   1.000
    C851    C    0.06096   0.85455   0.06470   1.000
    O852    O    0.06737   0.97988   0.90634   1.000
    O853    O    0.08946   0.97934   0.88491   1.000
    C854    C    0.07415   0.97314   0.89139   1.000
    C855    C    0.06445   0.95754   0.88184   1.000
    C856    C    0.07143   0.95023   0.86502   1.000
    H857    H    0.08352   0.95657   0.85851   1.000
    O858    O    0.93409   0.01822   0.90428   1.000
    O859    O    0.91243   0.01826   0.88232   1.000
    C860    C    0.92756   0.02467   0.88905   1.000
    C861    C    0.93724   0.04025   0.87944   1.000
    C862    C    0.93016   0.04749   0.86260   1.000
    H863    H    0.91792   0.04121   0.85630   1.000
    O864    O    0.98294   0.09321   0.93043   1.000
    O865    O    0.98342   0.11500   0.90858   1.000
    C866    C    0.97676   0.10848   0.92370   1.000
    C867    C    0.96124   0.11835   0.93319   1.000
    C868    C    0.95417   0.13522   0.92595   1.000
    H869    H    0.96053   0.14138   0.91368   1.000
    O870    O    0.01766   0.90488   0.93253   1.000
    O871    O    0.01765   0.88303   0.91085   1.000
    C872    C    0.02395   0.88958   0.92609   1.000
    C873    C    0.03916   0.87962   0.93607   1.000
    C874    C    0.04626   0.86272   0.92909   1.000
    H875    H    0.04015   0.85661   0.91667   1.000
    O876    O    0.09093   0.93005   0.98268   1.000
    O877    O    0.11292   0.90837   0.98290   1.000
    C878    C    0.10623   0.92357   0.97644   1.000
    C879    C    0.11607   0.93349   0.96116   1.000
    C880    C    0.13317   0.92659   0.95447   1.000
    H881    H    0.13938   0.91428   0.96083   1.000
    O882    O    0.90766   0.06815   0.97878   1.000
    O883    O    0.88575   0.08989   0.97829   1.000
    C884    C    0.89252   0.07470   0.97207   1.000
    C885    C    0.88303   0.06483   0.95651   1.000
    C886    C    0.86603   0.07159   0.94919   1.000
    H887    H    0.85936   0.08364   0.95547   1.000
    O888    O    0.01923   0.06686   0.90543   1.000
    O889    O    0.01974   0.08854   0.88347   1.000
    C890    C    0.02588   0.07327   0.89029   1.000
    C891    C    0.04132   0.06319   0.88088   1.000
    C892    C    0.04889   0.07011   0.86417   1.000
    H893    H    0.04277   0.08237   0.85763   1.000
    O894    O    0.98175   0.93105   0.90641   1.000
    O895    O    0.98176   0.90916   0.88478   1.000
    C896    C    0.97542   0.92444   0.89122   1.000
    C897    C    0.96006   0.93421   0.88128   1.000
    C898    C    0.95237   0.92641   0.86505   1.000
    H899    H    0.95841   0.91380   0.85924   1.000
    O900    O    0.09305   0.01643   0.93186   1.000
    O901    O    0.11517   0.01581   0.91047   1.000
    C902    C    0.10842   0.02255   0.92541   1.000
    C903    C    0.11821   0.03806   0.93504   1.000
    C904    C    0.13504   0.04521   0.92789   1.000
    H905    H    0.14120   0.03896   0.91558   1.000
    O906    O    0.90818   0.98196   0.93002   1.000
    O907    O    0.88652   0.98211   0.90804   1.000
    C908    C    0.89301   0.97565   0.92329   1.000
    C909    C    0.88314   0.96017   0.93285   1.000
    C910    C    0.86675   0.95274   0.92507   1.000
    H911    H    0.86077   0.95907   0.91265   1.000
    O912    O    0.06821   0.09177   0.98050   1.000
    O913    O    0.09029   0.11324   0.98073   1.000
    C914    C    0.07513   0.10682   0.97408   1.000
    C915    C    0.06586   0.11657   0.95826   1.000
    C916    C    0.07370   0.13290   0.95069   1.000
    H917    H    0.08597   0.13897   0.95715   1.000
    O918    O    0.93173   0.90645   0.98033   1.000
    O919    O    0.90953   0.88509   0.98025   1.000
    C920    C    0.92492   0.89133   0.97400   1.000
    C921    C    0.93465   0.88127   0.95879   1.000
    C922    C    0.92746   0.86442   0.95177   1.000
    H923    H    0.91502   0.85841   0.95794   1.000
    O924    O    0.93362   0.98154   0.90440   1.000
    O925    O    0.91197   0.98161   0.88243   1.000
    C926    C    0.92697   0.97496   0.88931   1.000
    C927    C    0.93638   0.95891   0.88018   1.000
    C928    C    0.92885   0.95084   0.86392   1.000
    H929    H    0.91646   0.95682   0.85752   1.000
    O930    O    0.06745   0.01652   0.90618   1.000
    O931    O    0.08954   0.01599   0.88476   1.000
    C932    C    0.07437   0.02275   0.89108   1.000
    C933    C    0.06502   0.03846   0.88119   1.000
    C934    C    0.07240   0.04563   0.86446   1.000
    H935    H    0.08473   0.03926   0.85842   1.000
    O936    O    0.98116   0.90519   0.93177   1.000
    O937    O    0.98115   0.88328   0.91015   1.000
    C938    C    0.97462   0.89007   0.92516   1.000
    C939    C    0.95888   0.88068   0.93477   1.000
    C940    C    0.95140   0.86389   0.92786   1.000
    H941    H    0.95772   0.85725   0.91584   1.000
    O942    O    0.01948   0.09280   0.93056   1.000
    O943    O    0.02005   0.11456   0.90868   1.000
    C944    C    0.02628   0.10782   0.92392   1.000
    C945    C    0.04201   0.11710   0.93371   1.000
    C946    C    0.05011   0.13344   0.92634   1.000
    H947    H    0.04445   0.13963   0.91370   1.000
    O948    O    0.90662   0.93268   0.97968   1.000
    O949    O    0.88441   0.91133   0.97946   1.000
    C950    C    0.89145   0.92631   0.97300   1.000
    C951    C    0.88229   0.93604   0.95711   1.000
    C952    C    0.86589   0.92879   0.94905   1.000
    H953    H    0.85953   0.91634   0.95487   1.000
    O954    O    0.09350   0.06578   0.98083   1.000
    O955    O    0.11560   0.08723   0.98104   1.000
    C956    C    0.10879   0.07220   0.97450   1.000
    C957    C    0.11837   0.06241   0.95897   1.000
    C958    C    0.13514   0.06943   0.95151   1.000
    H959    H    0.14161   0.08163   0.95770   1.000
    O960    O    0.01824   0.93041   0.90673   1.000
    O961    O    0.01824   0.90860   0.88502   1.000
    C962    C    0.02471   0.92374   0.89164   1.000
    C963    C    0.04025   0.93343   0.88198   1.000
    C964    C    0.04736   0.92641   0.86512   1.000
    H965    H    0.04113   0.91410   0.85892   1.000
    O966    O    0.98276   0.06783   0.90470   1.000
    O967    O    0.98318   0.08954   0.88277   1.000
    C968    C    0.97651   0.07447   0.88943   1.000
    C969    C    0.96100   0.06479   0.87967   1.000
    C970    C    0.95362   0.07192   0.86285   1.000
    H971    H    0.95979   0.08421   0.85651   1.000
    O972    O    0.90829   0.01849   0.92967   1.000
    O973    O    0.88660   0.01858   0.90773   1.000
    C974    C    0.89315   0.02498   0.92293   1.000
    C975    C    0.88335   0.04048   0.93257   1.000
    C976    C    0.86633   0.04740   0.92554   1.000
    H977    H    0.86014   0.04105   0.91329   1.000
    O978    O    0.09197   0.97990   0.93292   1.000
    O979    O    0.11413   0.97928   0.91156   1.000
    C980    C    0.10716   0.97315   0.92671   1.000
    C981    C    0.11652   0.95763   0.93687   1.000
    C982    C    0.13359   0.95044   0.93039   1.000
    H983    H    0.14035   0.95680   0.91844   1.000
    O984    O    0.06601   0.90388   0.98249   1.000
    O985    O    0.08789   0.88209   0.98268   1.000
    C986    C    0.07276   0.88875   0.97609   1.000
    C987    C    0.06317   0.87922   0.96042   1.000
    C988    C    0.07022   0.86239   0.95310   1.000
    H989    H    0.08233   0.85582   0.95945   1.000
    O990    O    0.93331   0.09376   0.97899   1.000
    O991    O    0.91145   0.11555   0.97848   1.000
    C992    C    0.92673   0.10891   0.97233   1.000
    C993    C    0.93665   0.11851   0.95688   1.000
    C994    C    0.92970   0.13534   0.94933   1.000
    H995    H    0.91744   0.14184   0.95539   1.000
    C996    C    0.04876   0.94912   0.89011   1.000
    H997    H    0.04351   0.95445   0.90324   1.000
    C998    C    0.06295   0.93468   0.85656   1.000
    C999    C    0.95279   0.04886   0.88774   1.000
    H1000   H    0.95815   0.04349   0.90086   1.000
    C1001   C    0.93820   0.06332   0.85421   1.000
    C1002   C    0.95252   0.11024   0.94880   1.000
    H1003   H    0.95774   0.09709   0.95429   1.000
    C1004   C    0.93838   0.14378   0.93387   1.000
    C1005   C    0.04754   0.88762   0.95188   1.000
    H1006   H    0.04228   0.90079   0.95718   1.000
    C1007   C    0.06180   0.85405   0.93746   1.000
    C1008   C    0.10792   0.94915   0.95238   1.000
    H1009   H    0.09457   0.95437   0.95725   1.000
    C1010   C    0.14195   0.93490   0.93906   1.000
    C1011   C    0.89148   0.04917   0.94817   1.000
    H1012   H    0.90474   0.04407   0.95350   1.000
    C1013   C    0.85757   0.06295   0.93371   1.000
    C1014   C    0.04936   0.04724   0.88917   1.000
    H1015   H    0.04379   0.04202   0.90223   1.000
    C1016   C    0.06446   0.06150   0.85590   1.000
    C1017   C    0.95209   0.95056   0.88865   1.000
    H1018   H    0.95775   0.95643   0.90138   1.000
    C1019   C    0.93667   0.93446   0.85640   1.000
    C1020   C    0.11012   0.04663   0.95071   1.000
    H1021   H    0.09702   0.04136   0.95613   1.000
    C1022   C    0.14356   0.06093   0.93596   1.000
    C1023   C    0.89073   0.95184   0.94897   1.000
    H1024   H    0.90357   0.95729   0.95484   1.000
    C1025   C    0.85814   0.93697   0.93293   1.000
    C1026   C    0.04991   0.10888   0.94977   1.000
    H1027   H    0.04399   0.09610   0.95533   1.000
    C1028   C    0.06605   0.14134   0.93466   1.000
    C1029   C    0.95049   0.88914   0.95034   1.000
    H1030   H    0.95595   0.90226   0.95553   1.000
    C1031   C    0.93569   0.85566   0.93628   1.000
    O1032   O    0.98308   0.43297   0.40808   1.000
    O1033   O    0.98301   0.41135   0.38617   1.000
    C1034   C    0.97649   0.42642   0.39298   1.000
    C1035   C    0.96057   0.43588   0.38359   1.000
    C1036   C    0.95293   0.42814   0.36732   1.000
    H1037   H    0.95940   0.41595   0.36111   1.000
    O1038   O    0.01823   0.56887   0.40867   1.000
    O1039   O    0.01787   0.59079   0.38693   1.000
    C1040   C    0.02450   0.57565   0.39350   1.000
    C1041   C    0.04007   0.56628   0.38367   1.000
    C1042   C    0.04733   0.57414   0.36726   1.000
    H1043   H    0.04082   0.58648   0.36128   1.000
    O1044   O    0.90626   0.48195   0.43306   1.000
    O1045   O    0.88472   0.48229   0.41098   1.000
    C1046   C    0.89111   0.47571   0.42622   1.000
    C1047   C    0.88125   0.46017   0.43574   1.000
    C1048   C    0.86447   0.45306   0.42847   1.000
    H1049   H    0.85831   0.45942   0.41615   1.000
    O1050   O    0.09307   0.51877   0.43276   1.000
    O1051   O    0.11472   0.51924   0.41087   1.000
    C1052   C    0.10823   0.52526   0.42624   1.000
    C1053   C    0.11810   0.54039   0.43628   1.000
    C1054   C    0.13512   0.54730   0.42945   1.000
    H1055   H    0.14136   0.54112   0.41714   1.000
    O1056   O    0.93216   0.40709   0.48096   1.000
    O1057   O    0.91068   0.38502   0.48084   1.000
    C1058   C    0.92575   0.39189   0.47442   1.000
    C1059   C    0.93563   0.38247   0.45881   1.000
    C1060   C    0.92815   0.36624   0.45064   1.000
    H1061   H    0.91534   0.36029   0.45607   1.000
    O1062   O    0.06829   0.59345   0.48264   1.000
    O1063   O    0.09002   0.61529   0.48263   1.000
    C1064   C    0.07481   0.60870   0.47627   1.000
    C1065   C    0.06487   0.61852   0.46092   1.000
    C1066   C    0.07190   0.63531   0.45351   1.000
    H1067   H    0.08424   0.64161   0.45961   1.000
    O1068   O    0.93268   0.51829   0.40808   1.000
    O1069   O    0.91133   0.51847   0.38581   1.000
    C1070   C    0.92640   0.52479   0.39277   1.000
    C1071   C    0.93635   0.54029   0.38330   1.000
    C1072   C    0.92979   0.54730   0.36614   1.000
    H1073   H    0.91793   0.54078   0.35936   1.000
    O1074   O    0.06740   0.48284   0.40658   1.000
    O1075   O    0.08891   0.48344   0.38456   1.000
    C1076   C    0.07390   0.47673   0.39127   1.000
    C1077   C    0.06437   0.46114   0.38160   1.000
    C1078   C    0.07144   0.45416   0.36473   1.000
    H1079   H    0.08350   0.46074   0.35837   1.000
    O1080   O    0.01997   0.40675   0.43284   1.000
    O1081   O    0.01992   0.38515   0.41093   1.000
    C1082   C    0.02650   0.39169   0.42605   1.000
    C1083   C    0.04241   0.38219   0.43546   1.000
    C1084   C    0.05038   0.36587   0.42790   1.000
    H1085   H    0.04440   0.35966   0.41547   1.000
    O1086   O    0.98144   0.59434   0.43411   1.000
    O1087   O    0.98131   0.61617   0.41229   1.000
    C1088   C    0.97493   0.60951   0.42743   1.000
    C1089   C    0.95937   0.61920   0.43701   1.000
    C1090   C    0.95223   0.63609   0.42988   1.000
    H1091   H    0.95857   0.64236   0.41766   1.000
    O1092   O    0.90702   0.56778   0.48223   1.000
    O1093   O    0.88511   0.58953   0.48246   1.000
    C1094   C    0.89185   0.57448   0.47582   1.000
    C1095   C    0.88236   0.56511   0.45999   1.000
    C1096   C    0.86619   0.57300   0.45210   1.000
    H1097   H    0.86005   0.58536   0.45832   1.000
    O1098   O    0.09546   0.43303   0.48078   1.000
    O1099   O    0.11741   0.41132   0.48060   1.000
    C1100   C    0.11052   0.42640   0.47409   1.000
    C1101   C    0.11959   0.43600   0.45810   1.000
    C1102   C    0.13577   0.42854   0.44977   1.000
    H1103   H    0.14211   0.41597   0.45545   1.000
    O1104   O    0.98176   0.56824   0.40896   1.000
    O1105   O    0.98153   0.59007   0.38714   1.000
    C1106   C    0.97536   0.57475   0.39372   1.000
    C1107   C    0.96026   0.56468   0.38378   1.000
    C1108   C    0.95355   0.57140   0.36658   1.000
    H1109   H    0.95977   0.58372   0.36033   1.000
    O1110   O    0.01962   0.43246   0.40713   1.000
    O1111   O    0.01953   0.41087   0.38521   1.000
    C1112   C    0.02591   0.42604   0.39182   1.000
    C1113   C    0.04114   0.43608   0.38197   1.000
    C1114   C    0.04858   0.42917   0.36515   1.000
    H1115   H    0.04270   0.41673   0.35887   1.000
    O1116   O    0.09351   0.48231   0.43167   1.000
    O1117   O    0.11502   0.48281   0.40965   1.000
    C1118   C    0.10862   0.47603   0.42475   1.000
    C1119   C    0.11851   0.46027   0.43398   1.000
    C1120   C    0.13469   0.45267   0.42593   1.000
    H1121   H    0.14051   0.45905   0.41350   1.000
    O1122   O    0.90662   0.51853   0.43308   1.000
    O1123   O    0.88519   0.51895   0.41090   1.000
    C1124   C    0.89168   0.52529   0.42616   1.000
    C1125   C    0.88220   0.54112   0.43566   1.000
    C1126   C    0.86598   0.54928   0.42798   1.000
    H1127   H    0.85993   0.54359   0.41533   1.000
    O1128   O    0.93183   0.59403   0.48241   1.000
    O1129   O    0.90999   0.61585   0.48270   1.000
    C1130   C    0.92513   0.60930   0.47614   1.000
    C1131   C    0.93483   0.61911   0.46070   1.000
    C1132   C    0.92775   0.63595   0.45326   1.000
    H1133   H    0.91545   0.64233   0.45935   1.000
    O1134   O    0.06990   0.40754   0.48114   1.000
    O1135   O    0.09180   0.38578   0.48120   1.000
    C1136   C    0.07657   0.39237   0.47479   1.000
    C1137   C    0.06693   0.38267   0.45929   1.000
    C1138   C    0.07470   0.36643   0.45152   1.000
    H1139   H    0.08724   0.36041   0.45758   1.000
    O1140   O    0.06769   0.51947   0.40689   1.000
    O1141   O    0.08927   0.52007   0.38496   1.000
    C1142   C    0.07418   0.52635   0.39185   1.000
    C1143   C    0.06439   0.54225   0.38272   1.000
    C1144   C    0.07150   0.55039   0.36628   1.000
    H1145   H    0.08394   0.54466   0.35983   1.000
    O1146   O    0.93240   0.48172   0.40804   1.000
    O1147   O    0.91093   0.48183   0.38590   1.000
    C1148   C    0.92598   0.47527   0.39281   1.000
    C1149   C    0.93580   0.45959   0.38343   1.000
    C1150   C    0.92838   0.45154   0.36710   1.000
    H1151   H    0.91567   0.45713   0.36098   1.000
    O1152   O    0.01805   0.59415   0.43446   1.000
    O1153   O    0.01783   0.61603   0.41268   1.000
    C1154   C    0.02441   0.60933   0.42780   1.000
    C1155   C    0.04008   0.61890   0.43734   1.000
    C1156   C    0.04728   0.63571   0.43019   1.000
    H1157   H    0.04090   0.64204   0.41797   1.000
    O1158   O    0.98321   0.40685   0.43306   1.000
    O1159   O    0.98319   0.38523   0.41116   1.000
    C1160   C    0.97662   0.39184   0.42625   1.000
    C1161   C    0.96060   0.38242   0.43544   1.000
    C1162   C    0.95286   0.36622   0.42754   1.000
    H1163   H    0.95937   0.35999   0.41540   1.000
    O1164   O    0.09371   0.56763   0.48249   1.000
    O1165   O    0.11555   0.58936   0.48243   1.000
    C1166   C    0.10885   0.57422   0.47602   1.000
    C1167   C    0.11838   0.56445   0.46049   1.000
    C1168   C    0.13533   0.57126   0.45333   1.000
    H1169   H    0.14192   0.58331   0.45967   1.000
    O1170   O    0.90610   0.43232   0.48138   1.000
    O1171   O    0.88451   0.41036   0.48132   1.000
    C1172   C    0.89095   0.42566   0.47496   1.000
    C1173   C    0.88120   0.43554   0.45951   1.000
    C1174   C    0.86445   0.42855   0.45197   1.000
    H1175   H    0.85805   0.41626   0.45808   1.000
    C1176   C    0.95200   0.45169   0.39150   1.000
    H1177   H    0.95761   0.45752   0.40428   1.000
    C1178   C    0.93677   0.43568   0.35912   1.000
    C1179   C    0.04858   0.55024   0.39122   1.000
    H1180   H    0.04322   0.54431   0.40406   1.000
    C1181   C    0.06312   0.56646   0.35857   1.000
    C1182   C    0.88935   0.45147   0.45139   1.000
    H1183   H    0.90243   0.45673   0.45689   1.000
    C1184   C    0.85598   0.43723   0.43645   1.000
    C1185   C    0.10996   0.54889   0.45196   1.000
    H1186   H    0.09669   0.54379   0.45712   1.000
    C1187   C    0.14375   0.56276   0.43781   1.000
    C1188   C    0.95195   0.39036   0.45117   1.000
    H1189   H    0.95761   0.40306   0.45712   1.000
    C1190   C    0.93658   0.35814   0.43490   1.000
    C1191   C    0.04886   0.61053   0.45283   1.000
    H1192   H    0.04356   0.59740   0.45823   1.000
    C1193   C    0.06321   0.64398   0.43813   1.000
    C1194   C    0.95171   0.54898   0.39193   1.000
    H1195   H    0.95662   0.54389   0.40534   1.000
    C1196   C    0.93828   0.56286   0.35773   1.000
    C1197   C    0.04906   0.45216   0.38997   1.000
    H1198   H    0.04370   0.45734   0.40311   1.000
    C1199   C    0.06372   0.43817   0.35643   1.000
    C1200   C    0.05070   0.39035   0.45127   1.000
    H1201   H    0.04487   0.40310   0.45698   1.000
    C1202   C    0.06663   0.35802   0.43578   1.000
    C1203   C    0.95073   0.61097   0.45254   1.000
    H1204   H    0.95606   0.59782   0.45793   1.000
    C1205   C    0.93642   0.64455   0.43786   1.000
    C1206   C    0.89018   0.54907   0.45176   1.000
    H1207   H    0.90287   0.54312   0.45757   1.000
    C1208   C    0.85802   0.56534   0.43602   1.000
    C1209   C    0.11117   0.45195   0.45015   1.000
    H1210   H    0.09852   0.45758   0.45625   1.000
    C1211   C    0.14332   0.43672   0.43356   1.000
    O1212   O    0.01943   0.43206   0.59204   1.000
    O1213   O    0.01947   0.40998   0.61361   1.000
    C1214   C    0.02581   0.42528   0.60721   1.000
    C1215   C    0.04119   0.43494   0.61715   1.000
    C1216   C    0.04812   0.42782   0.63413   1.000
    H1217   H    0.04178   0.41553   0.64029   1.000
    O1218   O    0.98244   0.56620   0.59283   1.000
    O1219   O    0.98243   0.58779   0.61476   1.000
    C1220   C    0.97604   0.57268   0.60804   1.000
    C1221   C    0.96063   0.56289   0.61771   1.000
    C1222   C    0.95363   0.56984   0.63463   1.000
    H1223   H    0.95993   0.58209   0.64089   1.000
    O1224   O    0.90715   0.51733   0.56733   1.000
    O1225   O    0.88551   0.51720   0.58922   1.000
    C1226   C    0.89198   0.52369   0.57401   1.000
    C1227   C    0.88216   0.53923   0.56434   1.000
    C1228   C    0.86504   0.54599   0.57114   1.000
    H1229   H    0.85850   0.53934   0.58307   1.000
    O1230   O    0.09492   0.48130   0.56762   1.000
    O1231   O    0.11662   0.48107   0.58954   1.000
    C1232   C    0.11012   0.47485   0.57425   1.000
    C1233   C    0.11999   0.45962   0.56428   1.000
    C1234   C    0.13683   0.45220   0.57131   1.000
    H1235   H    0.14309   0.45813   0.58373   1.000
    O1236   O    0.07026   0.40752   0.51756   1.000
    O1237   O    0.09221   0.38580   0.51771   1.000
    C1238   C    0.07699   0.39240   0.52410   1.000
    C1239   C    0.06729   0.38279   0.53969   1.000
    C1240   C    0.07487   0.36645   0.54775   1.000
    H1241   H    0.08764   0.36049   0.54222   1.000
    O1242   O    0.93251   0.59316   0.51880   1.000
    O1243   O    0.91066   0.61497   0.51922   1.000
    C1244   C    0.92594   0.60826   0.52543   1.000
    C1245   C    0.93596   0.61771   0.54086   1.000
    C1246   C    0.92924   0.63460   0.54833   1.000
    H1247   H    0.91696   0.64122   0.54235   1.000
    O1248   O    0.93297   0.48066   0.59271   1.000
    O1249   O    0.91145   0.48045   0.61471   1.000
    C1250   C    0.92652   0.47402   0.60786   1.000
    C1251   C    0.93632   0.45821   0.61712   1.000
    C1252   C    0.92907   0.45003   0.63347   1.000
    H1253   H    0.91653   0.45571   0.63977   1.000
    O1254   O    0.06896   0.51741   0.59326   1.000
    O1255   O    0.09058   0.51736   0.61527   1.000
    C1256   C    0.07541   0.52376   0.60852   1.000
    C1257   C    0.06539   0.53912   0.61814   1.000
    C1258   C    0.07213   0.54640   0.63510   1.000
    H1259   H    0.08438   0.54030   0.64165   1.000
    O1260   O    0.98322   0.40655   0.56579   1.000
    O1261   O    0.98349   0.38441   0.58730   1.000
    C1262   C    0.97694   0.39122   0.57223   1.000
    C1263   C    0.96137   0.38157   0.56257   1.000
    C1264   C    0.95433   0.36467   0.56968   1.000
    H1265   H    0.96077   0.35831   0.58185   1.000
    O1266   O    0.01889   0.59214   0.56756   1.000
    O1267   O    0.01878   0.61369   0.58953   1.000
    C1268   C    0.02518   0.60729   0.57431   1.000
    C1269   C    0.04051   0.61726   0.56470   1.000
    C1270   C    0.04723   0.63425   0.57177   1.000
    H1271   H    0.04074   0.64040   0.58396   1.000
    O1272   O    0.90637   0.43181   0.51790   1.000
    O1273   O    0.88484   0.40979   0.51802   1.000
    C1274   C    0.89140   0.42495   0.52454   1.000
    C1275   C    0.88205   0.43440   0.54044   1.000
    C1276   C    0.86581   0.42686   0.54862   1.000
    H1277   H    0.85956   0.41433   0.54288   1.000
    O1278   O    0.09410   0.56757   0.51895   1.000
    O1279   O    0.11590   0.58933   0.51899   1.000
    C1280   C    0.10930   0.57412   0.52538   1.000
    C1281   C    0.11903   0.56425   0.54083   1.000
    C1282   C    0.13592   0.57118   0.54805   1.000
    H1283   H    0.14236   0.58332   0.54170   1.000
    O1284   O    0.01896   0.56614   0.59289   1.000
    O1285   O    0.01881   0.58772   0.61484   1.000
    C1286   C    0.02527   0.57260   0.60816   1.000
    C1287   C    0.04070   0.56282   0.61797   1.000
    C1288   C    0.04748   0.56972   0.63500   1.000
    H1289   H    0.04096   0.58186   0.64127   1.000
    O1290   O    0.98285   0.43192   0.59160   1.000
    O1291   O    0.98304   0.40973   0.61305   1.000
    C1292   C    0.97644   0.42495   0.60661   1.000
    C1293   C    0.96073   0.43423   0.61637   1.000
    C1294   C    0.95331   0.42630   0.63269   1.000
    H1295   H    0.95978   0.41395   0.63868   1.000
    O1296   O    0.09446   0.51777   0.56772   1.000
    O1297   O    0.11621   0.51766   0.58960   1.000
    C1298   C    0.10958   0.52420   0.57444   1.000
    C1299   C    0.11918   0.53981   0.56479   1.000
    C1300   C    0.13608   0.54693   0.57179   1.000
    H1301   H    0.14238   0.54064   0.58407   1.000
    O1302   O    0.90734   0.48078   0.56720   1.000
    O1303   O    0.88578   0.48066   0.58917   1.000
    C1304   C    0.89230   0.47426   0.57397   1.000
    C1305   C    0.88264   0.45859   0.56455   1.000
    C1306   C    0.86648   0.45087   0.57245   1.000
    H1307   H    0.86051   0.45710   0.58485   1.000
    O1308   O    0.06842   0.59310   0.51904   1.000
    O1309   O    0.09011   0.61498   0.51917   1.000
    C1310   C    0.07497   0.60825   0.52554   1.000
    C1311   C    0.06506   0.61772   0.54101   1.000
    C1312   C    0.07175   0.63462   0.54844   1.000
    H1313   H    0.08393   0.64125   0.54240   1.000
    O1314   O    0.93260   0.40683   0.51739   1.000
    O1315   O    0.91118   0.38469   0.51743   1.000
    C1316   C    0.92634   0.39149   0.52376   1.000
    C1317   C    0.93649   0.38179   0.53905   1.000
    C1318   C    0.92960   0.36496   0.54649   1.000
    H1319   H    0.91723   0.35860   0.54051   1.000
    O1320   O    0.06899   0.48093   0.59282   1.000
    O1321   O    0.09059   0.48075   0.61485   1.000
    C1322   C    0.07548   0.47437   0.60802   1.000
    C1323   C    0.06560   0.45883   0.61749   1.000
    C1324   C    0.07236   0.45146   0.63443   1.000
    H1325   H    0.08444   0.45772   0.64106   1.000
    O1326   O    0.93290   0.51722   0.59286   1.000
    O1327   O    0.91134   0.51708   0.61483   1.000
    C1328   C    0.92643   0.52356   0.60810   1.000
    C1329   C    0.93625   0.53900   0.61774   1.000
    C1330   C    0.92935   0.54627   0.63460   1.000
    H1331   H    0.91716   0.54006   0.64107   1.000
    O1332   O    0.98242   0.59209   0.56741   1.000
    O1333   O    0.98245   0.61366   0.58937   1.000
    C1334   C    0.97606   0.60725   0.57412   1.000
    C1335   C    0.96067   0.61724   0.56448   1.000
    C1336   C    0.95393   0.63423   0.57156   1.000
    H1337   H    0.96047   0.64038   0.58374   1.000
    O1338   O    0.01992   0.40707   0.56590   1.000
    O1339   O    0.02003   0.38503   0.58751   1.000
    C1340   C    0.02656   0.39194   0.57252   1.000
    C1341   C    0.04254   0.38263   0.56322   1.000
    C1342   C    0.05029   0.36633   0.57099   1.000
    H1343   H    0.04385   0.35999   0.58313   1.000
    O1344   O    0.09561   0.43332   0.51736   1.000
    O1345   O    0.11762   0.41167   0.51724   1.000
    C1346   C    0.11087   0.42676   0.52373   1.000
    C1347   C    0.12046   0.43632   0.53935   1.000
    C1348   C    0.13735   0.42923   0.54649   1.000
    H1349   H    0.14376   0.41713   0.54003   1.000
    O1350   O    0.90686   0.56769   0.51876   1.000
    O1351   O    0.88489   0.58937   0.51910   1.000
    C1352   C    0.89169   0.57415   0.52535   1.000
    C1353   C    0.88218   0.56410   0.54077   1.000
    C1354   C    0.86526   0.57088   0.54807   1.000
    H1355   H    0.85875   0.58323   0.54209   1.000
    C1356   C    0.04990   0.45057   0.60907   1.000
    H1357   H    0.04481   0.45594   0.59584   1.000
    C1358   C    0.06373   0.43595   0.64283   1.000
    C1359   C    0.95200   0.54733   0.60949   1.000
    H1360   H    0.95718   0.54207   0.59631   1.000
    C1361   C    0.93797   0.56169   0.64312   1.000
    C1362   C    0.89048   0.54822   0.54897   1.000
    H1363   H    0.90376   0.54318   0.54373   1.000
    C1364   C    0.85663   0.56186   0.56317   1.000
    C1365   C    0.11202   0.45167   0.54821   1.000
    H1366   H    0.09884   0.45703   0.54293   1.000
    C1367   C    0.14558   0.43700   0.56248   1.000
    C1368   C    0.05103   0.39068   0.54747   1.000
    H1369   H    0.04531   0.40345   0.54162   1.000
    C1370   C    0.06653   0.35826   0.56352   1.000
    C1371   C    0.95178   0.60922   0.54896   1.000
    H1372   H    0.95681   0.59599   0.54358   1.000
    C1373   C    0.93821   0.64294   0.56365   1.000
    C1374   C    0.95225   0.45027   0.60879   1.000
    H1375   H    0.95772   0.45625   0.59601   1.000
    C1376   C    0.93741   0.43396   0.64125   1.000
    C1377   C    0.04958   0.54736   0.60977   1.000
    H1378   H    0.04453   0.54213   0.59651   1.000
    C1379   C    0.06320   0.56168   0.64360   1.000
    C1380   C    0.95248   0.38991   0.54711   1.000
    H1381   H    0.95764   0.40310   0.54174   1.000
    C1382   C    0.93840   0.35635   0.56182   1.000
    C1383   C    0.04934   0.60924   0.54917   1.000
    H1384   H    0.04433   0.59602   0.54381   1.000
    C1385   C    0.06285   0.64298   0.56379   1.000
    C1386   C    0.89023   0.45038   0.54846   1.000
    H1387   H    0.90291   0.45609   0.54252   1.000
    C1388   C    0.85808   0.43493   0.56476   1.000
    C1389   C    0.11087   0.54846   0.54919   1.000
    H1390   H    0.09768   0.54323   0.54391   1.000
    C1391   C    0.14452   0.56264   0.56355   1.000
    O1392   O    0.48191   0.93304   0.40715   1.000
    O1393   O    0.48243   0.91129   0.38538   1.000
    C1394   C    0.47563   0.92631   0.39198   1.000
    C1395   C    0.45979   0.93560   0.38229   1.000
    C1396   C    0.45229   0.92781   0.36594   1.000
    H1397   H    0.45881   0.91559   0.35984   1.000
    O1398   O    0.51671   0.06723   0.40654   1.000
    O1399   O    0.51655   0.08930   0.38495   1.000
    C1400   C    0.52310   0.07407   0.39148   1.000
    C1401   C    0.53879   0.06460   0.38189   1.000
    C1402   C    0.54585   0.07175   0.36505   1.000
    H1403   H    0.53933   0.08390   0.35869   1.000
    O1404   O    0.40611   0.98125   0.43179   1.000
    O1405   O    0.38428   0.98101   0.41000   1.000
    C1406   C    0.39103   0.97462   0.42516   1.000
    C1407   C    0.38171   0.95884   0.43481   1.000
    C1408   C    0.36542   0.95081   0.42734   1.000
    H1409   H    0.35923   0.95659   0.41475   1.000
    O1410   O    0.59296   0.01997   0.43307   1.000
    O1411   O    0.61488   0.02014   0.41146   1.000
    C1412   C    0.60809   0.02655   0.42654   1.000
    C1413   C    0.61745   0.04224   0.43627   1.000
    C1414   C    0.63377   0.05032   0.42891   1.000
    H1415   H    0.63992   0.04465   0.41633   1.000
    O1416   O    0.43278   0.90631   0.48127   1.000
    O1417   O    0.41118   0.88436   0.48123   1.000
    C1418   C    0.42627   0.89113   0.47478   1.000
    C1419   C    0.43604   0.88176   0.45911   1.000
    C1420   C    0.42871   0.86548   0.45088   1.000
    H1421   H    0.41610   0.85922   0.45643   1.000
    O1422   O    0.56563   0.09280   0.48268   1.000
    O1423   O    0.58686   0.11511   0.48290   1.000
    C1424   C    0.57197   0.10808   0.47624   1.000
    C1425   C    0.56251   0.11741   0.46030   1.000
    C1426   C    0.57026   0.13364   0.45252   1.000
    H1427   H    0.58246   0.13991   0.45893   1.000
    O1428   O    0.43133   0.01810   0.40635   1.000
    O1429   O    0.40959   0.01786   0.38448   1.000
    C1430   C    0.42462   0.02451   0.39119   1.000
    C1431   C    0.43396   0.04036   0.38167   1.000
    C1432   C    0.42616   0.04813   0.36541   1.000
    H1433   H    0.41388   0.04179   0.35923   1.000
    O1434   O    0.56780   0.98319   0.40765   1.000
    O1435   O    0.58962   0.98323   0.38594   1.000
    C1436   C    0.57447   0.97676   0.39254   1.000
    C1437   C    0.56472   0.96129   0.38287   1.000
    C1438   C    0.57162   0.95415   0.36596   1.000
    H1439   H    0.58379   0.96043   0.35952   1.000
    O1440   O    0.51888   0.90779   0.43279   1.000
    O1441   O    0.51946   0.88608   0.41098   1.000
    C1442   C    0.52569   0.89276   0.42618   1.000
    C1443   C    0.54143   0.88338   0.43596   1.000
    C1444   C    0.54960   0.86705   0.42864   1.000
    H1445   H    0.54397   0.86079   0.41607   1.000
    O1446   O    0.48026   0.09235   0.43241   1.000
    O1447   O    0.48006   0.11458   0.41099   1.000
    C1448   C    0.47372   0.10762   0.42605   1.000
    C1449   C    0.45810   0.11693   0.43590   1.000
    C1450   C    0.45016   0.13347   0.42873   1.000
    H1451   H    0.45589   0.13984   0.41625   1.000
    O1452   O    0.40536   0.06583   0.48159   1.000
    O1453   O    0.38349   0.08763   0.48164   1.000
    C1454   C    0.39021   0.07258   0.47508   1.000
    C1455   C    0.38068   0.06333   0.45921   1.000
    C1456   C    0.36444   0.07124   0.45144   1.000
    H1457   H    0.35825   0.08349   0.45784   1.000
    O1458   O    0.59307   0.93410   0.48298   1.000
    O1459   O    0.61525   0.91261   0.48317   1.000
    C1460   C    0.60842   0.92773   0.47673   1.000
    C1461   C    0.61811   0.93762   0.46135   1.000
    C1462   C    0.63503   0.93061   0.45433   1.000
    H1463   H    0.64132   0.91830   0.46062   1.000
    O1464   O    0.48015   0.06754   0.40617   1.000
    O1465   O    0.47991   0.08968   0.38468   1.000
    C1466   C    0.47353   0.07441   0.39114   1.000
    C1467   C    0.45783   0.06483   0.38156   1.000
    C1468   C    0.44976   0.07243   0.36524   1.000
    H1469   H    0.45544   0.08510   0.35919   1.000
    O1470   O    0.51847   0.93385   0.40754   1.000
    O1471   O    0.51890   0.91216   0.38572   1.000
    C1472   C    0.52503   0.92741   0.39239   1.000
    C1473   C    0.54037   0.93736   0.38275   1.000
    C1474   C    0.54736   0.93055   0.36578   1.000
    H1475   H    0.54109   0.91834   0.35944   1.000
    O1476   O    0.59317   0.98345   0.43344   1.000
    O1477   O    0.61511   0.98347   0.41185   1.000
    C1478   C    0.60842   0.97705   0.42699   1.000
    C1479   C    0.61809   0.96159   0.43692   1.000
    C1480   C    0.63495   0.95425   0.43001   1.000
    H1481   H    0.64139   0.96044   0.41780   1.000
    O1482   O    0.40549   0.01776   0.43157   1.000
    O1483   O    0.38369   0.01766   0.40976   1.000
    C1484   C    0.39028   0.02414   0.42491   1.000
    C1485   C    0.38063   0.03972   0.43458   1.000
    C1486   C    0.36436   0.04788   0.42699   1.000
    H1487   H    0.35840   0.04236   0.41423   1.000
    O1488   O    0.43126   0.09117   0.48199   1.000
    O1489   O    0.40930   0.11288   0.48193   1.000
    C1490   C    0.42455   0.10635   0.47559   1.000
    C1491   C    0.43411   0.11621   0.46014   1.000
    C1492   C    0.42642   0.13272   0.45278   1.000
    H1493   H    0.41410   0.13880   0.45914   1.000
    O1494   O    0.56762   0.90844   0.48266   1.000
    O1495   O    0.58979   0.88694   0.48274   1.000
    C1496   C    0.57457   0.89346   0.47619   1.000
    C1497   C    0.56529   0.88385   0.46045   1.000
    C1498   C    0.57323   0.86761   0.45293   1.000
    H1499   H    0.58558   0.86154   0.45934   1.000
    O1500   O    0.56739   0.01962   0.40741   1.000
    O1501   O    0.58921   0.01976   0.38570   1.000
    C1502   C    0.57391   0.02602   0.39220   1.000
    C1503   C    0.56381   0.04124   0.38232   1.000
    C1504   C    0.57072   0.04864   0.36550   1.000
    H1505   H    0.58312   0.04265   0.35923   1.000
    O1506   O    0.43168   0.98154   0.40631   1.000
    O1507   O    0.40994   0.98120   0.38443   1.000
    C1508   C    0.42517   0.97493   0.39119   1.000
    C1509   C    0.43509   0.95934   0.38182   1.000
    C1510   C    0.42779   0.95129   0.36547   1.000
    H1511   H    0.41511   0.95690   0.35931   1.000
    O1512   O    0.51677   0.09262   0.43220   1.000
    O1513   O    0.51669   0.11476   0.41070   1.000
    C1514   C    0.52320   0.10788   0.42576   1.000
    C1515   C    0.53884   0.11736   0.43555   1.000
    C1516   C    0.54692   0.13362   0.42797   1.000
    H1517   H    0.54136   0.13960   0.41519   1.000
    O1518   O    0.48232   0.90753   0.43285   1.000
    O1519   O    0.48292   0.88580   0.41106   1.000
    C1520   C    0.47620   0.89231   0.42612   1.000
    C1521   C    0.46057   0.88245   0.43539   1.000
    C1522   C    0.45310   0.86621   0.42744   1.000
    H1523   H    0.45959   0.86024   0.41516   1.000
    O1524   O    0.59217   0.06819   0.48282   1.000
    O1525   O    0.61340   0.09051   0.48303   1.000
    C1526   C    0.60715   0.07527   0.47644   1.000
    C1527   C    0.61696   0.06608   0.46070   1.000
    C1528   C    0.63324   0.07398   0.45310   1.000
    H1529   H    0.63926   0.08631   0.45946   1.000
    O1530   O    0.40717   0.93198   0.48112   1.000
    O1531   O    0.38554   0.91004   0.48125   1.000
    C1532   C    0.39204   0.92523   0.47472   1.000
    C1533   C    0.38228   0.93470   0.45905   1.000
    C1534   C    0.36600   0.92690   0.45138   1.000
    H1535   H    0.35998   0.91450   0.45765   1.000
    C1536   C    0.45120   0.95147   0.39002   1.000
    H1537   H    0.45671   0.95734   0.40282   1.000
    C1538   C    0.43621   0.93542   0.35753   1.000
    C1539   C    0.54773   0.04921   0.39029   1.000
    H1540   H    0.54253   0.04382   0.40344   1.000
    C1541   C    0.56182   0.06391   0.35679   1.000
    C1542   C    0.38993   0.95078   0.45078   1.000
    H1543   H    0.40269   0.95666   0.45641   1.000
    C1544   C    0.35757   0.93474   0.43545   1.000
    C1545   C    0.60929   0.05011   0.45227   1.000
    H1546   H    0.59655   0.04416   0.45783   1.000
    C1547   C    0.64169   0.06627   0.43716   1.000
    C1548   C    0.45207   0.89002   0.45132   1.000
    H1549   H    0.45760   0.90277   0.45730   1.000
    C1550   C    0.43709   0.85774   0.43490   1.000
    C1551   C    0.54669   0.10941   0.45181   1.000
    H1552   H    0.54085   0.09667   0.45753   1.000
    C1553   C    0.56277   0.14169   0.43627   1.000
    C1554   C    0.44989   0.04871   0.38954   1.000
    H1555   H    0.45577   0.04297   0.40228   1.000
    C1556   C    0.43381   0.06423   0.35719   1.000
    C1557   C    0.54899   0.95288   0.39108   1.000
    H1558   H    0.54380   0.95803   0.40430   1.000
    C1559   C    0.56300   0.93879   0.35734   1.000
    C1560   C    0.54930   0.89156   0.45199   1.000
    H1561   H    0.54333   0.90432   0.45753   1.000
    C1562   C    0.56562   0.85923   0.43697   1.000
    C1563   C    0.45006   0.10850   0.45173   1.000
    H1564   H    0.45584   0.09554   0.45712   1.000
    C1565   C    0.43420   0.14131   0.43700   1.000
    C1566   C    0.38856   0.04747   0.45079   1.000
    H1567   H    0.40129   0.04153   0.45653   1.000
    C1568   C    0.35629   0.06378   0.43525   1.000
    C1569   C    0.60986   0.95326   0.45270   1.000
    H1570   H    0.59665   0.95856   0.45787   1.000
    C1571   C    0.64347   0.93874   0.43863   1.000
    O1572   O    0.51812   0.93232   0.59364   1.000
    O1573   O    0.51848   0.91035   0.61531   1.000
    C1574   C    0.52469   0.92565   0.60876   1.000
    C1575   C    0.54016   0.93550   0.61839   1.000
    C1576   C    0.54824   0.92802   0.63472   1.000
    H1577   H    0.54274   0.91526   0.64076   1.000
    O1578   O    0.47976   0.06702   0.59503   1.000
    O1579   O    0.47943   0.08901   0.61655   1.000
    C1580   C    0.47325   0.07367   0.61011   1.000
    C1581   C    0.45790   0.06369   0.61978   1.000
    C1582   C    0.45035   0.07053   0.63655   1.000
    H1583   H    0.45637   0.08280   0.64304   1.000
    O1584   O    0.40631   0.01747   0.56866   1.000
    O1585   O    0.38426   0.01707   0.59014   1.000
    C1586   C    0.39098   0.02369   0.57511   1.000
    C1587   C    0.38126   0.03917   0.56531   1.000
    C1588   C    0.36497   0.04718   0.57284   1.000
    H1589   H    0.35912   0.04163   0.58564   1.000
    O1590   O    0.59166   0.98310   0.56840   1.000
    O1591   O    0.61341   0.98307   0.59029   1.000
    C1592   C    0.60684   0.97671   0.57511   1.000
    C1593   C    0.61664   0.96123   0.56561   1.000
    C1594   C    0.63305   0.95373   0.57335   1.000
    H1595   H    0.63913   0.96003   0.58569   1.000
    O1596   O    0.56784   0.90765   0.51912   1.000
    O1597   O    0.58995   0.88610   0.51919   1.000
    C1598   C    0.57466   0.89250   0.52553   1.000
    C1599   C    0.56505   0.88266   0.54098   1.000
    C1600   C    0.57258   0.86615   0.54868   1.000
    H1601   H    0.58520   0.86015   0.54286   1.000
    O1602   O    0.43077   0.09121   0.51853   1.000
    O1603   O    0.40882   0.11293   0.51826   1.000
    C1604   C    0.42394   0.10633   0.52489   1.000
    C1605   C    0.43318   0.11605   0.54063   1.000
    C1606   C    0.42535   0.13252   0.54782   1.000
    H1607   H    0.41317   0.13863   0.54114   1.000
    O1608   O    0.43196   0.98087   0.59417   1.000
    O1609   O    0.40987   0.98017   0.61560   1.000
    C1610   C    0.42521   0.97404   0.60910   1.000
    C1611   C    0.43501   0.95837   0.61853   1.000
    C1612   C    0.42771   0.95027   0.63488   1.000
    H1613   H    0.41510   0.95591   0.64108   1.000
    O1614   O    0.56588   0.01940   0.59400   1.000
    O1615   O    0.58776   0.01929   0.61575   1.000
    C1616   C    0.57258   0.02577   0.60914   1.000
    C1617   C    0.56310   0.04136   0.61880   1.000
    C1618   C    0.57111   0.04915   0.63485   1.000
    H1619   H    0.58365   0.04298   0.64077   1.000
    O1620   O    0.48191   0.90667   0.56780   1.000
    O1621   O    0.48204   0.88469   0.58947   1.000
    C1622   C    0.47554   0.89144   0.57435   1.000
    C1623   C    0.45994   0.88189   0.56462   1.000
    C1624   C    0.45197   0.86558   0.57220   1.000
    H1625   H    0.45767   0.85956   0.58490   1.000
    O1626   O    0.51566   0.09249   0.56863   1.000
    O1627   O    0.51534   0.11468   0.58996   1.000
    C1628   C    0.52185   0.10787   0.57492   1.000
    C1629   C    0.53722   0.11760   0.56504   1.000
    C1630   C    0.54419   0.13455   0.57198   1.000
    H1631   H    0.53789   0.14082   0.58420   1.000
    O1632   O    0.40727   0.93203   0.51763   1.000
    O1633   O    0.38557   0.91017   0.51775   1.000
    C1634   C    0.39215   0.92539   0.52411   1.000
    C1635   C    0.38247   0.93516   0.53957   1.000
    C1636   C    0.36545   0.92832   0.54657   1.000
    H1637   H    0.35895   0.91623   0.54021   1.000
    O1638   O    0.59213   0.06811   0.51934   1.000
    O1639   O    0.61340   0.09039   0.51954   1.000
    C1640   C    0.60713   0.07503   0.52587   1.000
    C1641   C    0.61694   0.06535   0.54138   1.000
    C1642   C    0.63396   0.07216   0.54849   1.000
    H1643   H    0.64049   0.08420   0.54205   1.000
    O1644   O    0.51625   0.06787   0.59511   1.000
    O1645   O    0.51613   0.08993   0.61656   1.000
    C1646   C    0.52280   0.07481   0.61007   1.000
    C1647   C    0.53880   0.06545   0.61944   1.000
    C1648   C    0.54708   0.07310   0.63557   1.000
    H1649   H    0.54131   0.08565   0.64177   1.000
    O1650   O    0.48163   0.93213   0.59339   1.000
    O1651   O    0.48198   0.91017   0.61508   1.000
    C1652   C    0.47532   0.92530   0.60850   1.000
    C1653   C    0.45960   0.93459   0.61815   1.000
    C1654   C    0.45212   0.92672   0.63444   1.000
    H1655   H    0.45858   0.91441   0.64055   1.000
    O1656   O    0.59178   0.01953   0.56870   1.000
    O1657   O    0.61361   0.01937   0.59050   1.000
    C1658   C    0.60702   0.02582   0.57531   1.000
    C1659   C    0.61685   0.04115   0.56552   1.000
    C1660   C    0.63389   0.04804   0.57237   1.000
    H1661   H    0.64015   0.04172   0.58466   1.000
    O1662   O    0.40725   0.98108   0.56770   1.000
    O1663   O    0.38507   0.98063   0.58905   1.000
    C1664   C    0.39198   0.97453   0.57389   1.000
    C1665   C    0.38239   0.95930   0.56372   1.000
    C1666   C    0.36529   0.95239   0.57031   1.000
    H1667   H    0.35886   0.95862   0.58249   1.000
    O1668   O    0.56554   0.09288   0.51926   1.000
    O1669   O    0.58678   0.11519   0.51945   1.000
    C1670   C    0.57173   0.10819   0.52576   1.000
    C1671   C    0.56168   0.11767   0.54118   1.000
    C1672   C    0.56850   0.13457   0.54848   1.000
    H1673   H    0.58069   0.14109   0.54233   1.000
    O1674   O    0.43310   0.90664   0.51781   1.000
    O1675   O    0.41145   0.88473   0.51783   1.000
    C1676   C    0.42653   0.89148   0.52433   1.000
    C1677   C    0.43604   0.88198   0.54014   1.000
    C1678   C    0.42833   0.86571   0.54792   1.000
    H1679   H    0.41604   0.85951   0.54162   1.000
    O1680   O    0.56613   0.98278   0.59389   1.000
    O1681   O    0.58793   0.98279   0.61572   1.000
    C1682   C    0.57287   0.97623   0.60898   1.000
    C1683   C    0.56362   0.96032   0.61841   1.000
    C1684   C    0.57148   0.95262   0.63467   1.000
    H1685   H    0.58368   0.95906   0.64091   1.000
    O1686   O    0.43179   0.01739   0.59442   1.000
    O1687   O    0.40979   0.01676   0.61594   1.000
    C1688   C    0.42493   0.02348   0.60958   1.000
    C1689   C    0.43433   0.03898   0.61953   1.000
    C1690   C    0.42706   0.04592   0.63635   1.000
    H1691   H    0.41481   0.03945   0.64243   1.000
    O1692   O    0.47920   0.09231   0.56909   1.000
    O1693   O    0.47873   0.11442   0.59049   1.000
    C1694   C    0.47245   0.10746   0.57542   1.000
    C1695   C    0.45676   0.11668   0.56541   1.000
    C1696   C    0.44864   0.13317   0.57241   1.000
    H1697   H    0.45418   0.13951   0.58498   1.000
    O1698   O    0.51843   0.90704   0.56783   1.000
    O1699   O    0.51859   0.88503   0.58948   1.000
    C1700   C    0.52500   0.89186   0.57441   1.000
    C1701   C    0.54072   0.88244   0.56487   1.000
    C1702   C    0.54842   0.86597   0.57235   1.000
    H1703   H    0.54212   0.85957   0.58453   1.000
    O1704   O    0.59275   0.93386   0.51940   1.000
    O1705   O    0.61488   0.91232   0.51958   1.000
    C1706   C    0.60795   0.92737   0.52596   1.000
    C1707   C    0.61727   0.93706   0.54162   1.000
    C1708   C    0.63370   0.92972   0.54959   1.000
    H1709   H    0.64000   0.91720   0.54385   1.000
    O1710   O    0.40549   0.06537   0.51823   1.000
    O1711   O    0.38363   0.08718   0.51811   1.000
    C1712   C    0.39035   0.07207   0.52466   1.000
    C1713   C    0.38093   0.06271   0.54049   1.000
    C1714   C    0.36468   0.07048   0.54821   1.000
    H1715   H    0.35834   0.08268   0.54177   1.000
    C1716   C    0.54786   0.95177   0.61045   1.000
    H1717   H    0.54197   0.95743   0.59768   1.000
    C1718   C    0.56403   0.93642   0.64280   1.000
    C1719   C    0.44989   0.04781   0.61152   1.000
    H1720   H    0.45538   0.04267   0.59841   1.000
    C1721   C    0.43494   0.06169   0.64495   1.000
    C1722   C    0.38902   0.04694   0.54903   1.000
    H1723   H    0.40178   0.04109   0.54335   1.000
    C1724   C    0.35671   0.06295   0.56446   1.000
    C1725   C    0.60893   0.95293   0.54963   1.000
    H1726   H    0.59606   0.95846   0.54381   1.000
    C1727   C    0.64155   0.93789   0.56557   1.000
    C1728   C    0.54901   0.89058   0.54908   1.000
    H1729   H    0.54333   0.90348   0.54347   1.000
    C1730   C    0.56442   0.85782   0.56447   1.000
    C1731   C    0.44899   0.10831   0.54941   1.000
    H1732   H    0.45492   0.09543   0.54410   1.000
    C1733   C    0.43283   0.14108   0.56376   1.000
    C1734   C    0.45107   0.95052   0.61039   1.000
    H1735   H    0.45659   0.95644   0.59760   1.000
    C1736   C    0.43611   0.93433   0.64280   1.000
    C1737   C    0.54686   0.04948   0.61130   1.000
    H1738   H    0.54084   0.04369   0.59869   1.000
    C1739   C    0.56338   0.06509   0.64321   1.000
    C1740   C    0.45195   0.88989   0.54849   1.000
    H1741   H    0.45775   0.90266   0.54277   1.000
    C1742   C    0.43605   0.85754   0.56403   1.000
    C1743   C    0.54594   0.10935   0.54949   1.000
    H1744   H    0.54083   0.09612   0.54423   1.000
    C1745   C    0.55988   0.14304   0.56389   1.000
    C1746   C    0.39077   0.95076   0.54818   1.000
    H1747   H    0.40410   0.95588   0.54316   1.000
    C1748   C    0.35680   0.93690   0.56191   1.000
    C1749   C    0.60863   0.04974   0.54989   1.000
    H1750   H    0.59536   0.04462   0.54471   1.000
    C1751   C    0.64256   0.06353   0.56398   1.000
    O1752   O    0.48198   0.43345   0.90712   1.000
    O1753   O    0.48139   0.41146   0.88560   1.000
    C1754   C    0.47530   0.42683   0.89209   1.000
    C1755   C    0.45982   0.43679   0.88253   1.000
    C1756   C    0.45244   0.43000   0.86568   1.000
    H1757   H    0.45872   0.41791   0.85908   1.000
    O1758   O    0.51987   0.56700   0.90551   1.000
    O1759   O    0.52001   0.58869   0.88356   1.000
    C1760   C    0.52640   0.57353   0.89035   1.000
    C1761   C    0.54209   0.56377   0.88100   1.000
    C1762   C    0.55027   0.57124   0.86477   1.000
    H1763   H    0.54463   0.58391   0.85860   1.000
    O1764   O    0.40723   0.48284   0.93359   1.000
    O1765   O    0.38512   0.48315   0.91208   1.000
    C1766   C    0.39187   0.47662   0.92718   1.000
    C1767   C    0.38209   0.46126   0.93708   1.000
    C1768   C    0.36531   0.45395   0.92998   1.000
    H1769   H    0.35919   0.45995   0.91747   1.000
    O1770   O    0.59358   0.51765   0.93274   1.000
    O1771   O    0.61577   0.51722   0.91141   1.000
    C1772   C    0.60884   0.52399   0.92627   1.000
    C1773   C    0.61821   0.53985   0.93572   1.000
    C1774   C    0.63438   0.54797   0.92803   1.000
    H1775   H    0.64037   0.54225   0.91539   1.000
    O1776   O    0.43250   0.40918   0.98375   1.000
    O1777   O    0.41079   0.38734   0.98402   1.000
    C1778   C    0.42587   0.39399   0.97740   1.000
    C1779   C    0.43536   0.38428   0.96174   1.000
    C1780   C    0.42807   0.36746   0.95476   1.000
    H1781   H    0.41584   0.36132   0.96121   1.000
    O1782   O    0.56789   0.59284   0.98202   1.000
    O1783   O    0.58982   0.61447   0.98166   1.000
    C1784   C    0.57463   0.60785   0.97532   1.000
    C1785   C    0.56523   0.61729   0.95946   1.000
    C1786   C    0.57283   0.63370   0.95189   1.000
    H1787   H    0.58491   0.64008   0.95842   1.000
    O1788   O    0.43293   0.51902   0.90757   1.000
    O1789   O    0.41082   0.51932   0.88605   1.000
    C1790   C    0.42620   0.52548   0.89241   1.000
    C1791   C    0.43613   0.54062   0.88238   1.000
    C1792   C    0.42909   0.54770   0.86545   1.000
    H1793   H    0.41674   0.54150   0.85925   1.000
    O1794   O    0.56809   0.48093   0.90735   1.000
    O1795   O    0.59027   0.48046   0.88601   1.000
    C1796   C    0.57494   0.47422   0.89244   1.000
    C1797   C    0.56539   0.45854   0.88288   1.000
    C1798   C    0.57313   0.45065   0.86673   1.000
    H1799   H    0.58558   0.45676   0.86067   1.000
    O1800   O    0.51783   0.40723   0.93304   1.000
    O1801   O    0.51739   0.38514   0.91162   1.000
    C1802   C    0.52396   0.39184   0.92668   1.000
    C1803   C    0.53936   0.38207   0.93655   1.000
    C1804   C    0.54740   0.36579   0.92901   1.000
    H1805   H    0.54188   0.35994   0.91621   1.000
    O1806   O    0.48366   0.59295   0.93111   1.000
    O1807   O    0.48377   0.61467   0.90918   1.000
    C1808   C    0.47744   0.60824   0.92446   1.000
    C1809   C    0.46233   0.61837   0.93433   1.000
    C1810   C    0.45528   0.63525   0.92710   1.000
    H1811   H    0.46126   0.64114   0.91450   1.000
    O1812   O    0.40988   0.56971   0.98215   1.000
    O1813   O    0.38825   0.59174   0.98181   1.000
    C1814   C    0.39466   0.57634   0.97574   1.000
    C1815   C    0.38457   0.56635   0.96073   1.000
    C1816   C    0.36753   0.57338   0.95388   1.000
    H1817   H    0.36152   0.58588   0.95995   1.000
    O1818   O    0.59175   0.43180   0.98320   1.000
    O1819   O    0.61324   0.40962   0.98330   1.000
    C1820   C    0.60681   0.42490   0.97681   1.000
    C1821   C    0.61667   0.43433   0.96125   1.000
    C1822   C    0.63306   0.42646   0.95389   1.000
    H1823   H    0.63901   0.41406   0.96029   1.000
    O1824   O    0.48328   0.56699   0.90599   1.000
    O1825   O    0.48333   0.58863   0.88399   1.000
    C1826   C    0.47677   0.57359   0.89084   1.000
    C1827   C    0.46098   0.56404   0.88151   1.000
    C1828   C    0.45374   0.57089   0.86457   1.000
    H1829   H    0.46015   0.58292   0.85797   1.000
    O1830   O    0.51855   0.43239   0.90701   1.000
    O1831   O    0.51810   0.41038   0.88552   1.000
    C1832   C    0.52494   0.42542   0.89201   1.000
    C1833   C    0.54095   0.43463   0.88252   1.000
    C1834   C    0.54896   0.42691   0.86630   1.000
    H1835   H    0.54301   0.41442   0.86019   1.000
    O1836   O    0.59325   0.48100   0.93337   1.000
    O1837   O    0.61547   0.48053   0.91207   1.000
    C1838   C    0.60844   0.47427   0.92712   1.000
    C1839   C    0.61759   0.45848   0.93703   1.000
    C1840   C    0.63398   0.45034   0.92986   1.000
    H1841   H    0.64034   0.45607   0.91738   1.000
    O1842   O    0.40806   0.51940   0.93376   1.000
    O1843   O    0.38590   0.51974   0.91229   1.000
    C1844   C    0.39290   0.52608   0.92732   1.000
    C1845   C    0.38367   0.54182   0.93706   1.000
    C1846   C    0.36669   0.54912   0.93035   1.000
    H1847   H    0.35981   0.54264   0.91854   1.000
    O1848   O    0.43573   0.59508   0.98161   1.000
    O1849   O    0.41411   0.61711   0.98122   1.000
    C1850   C    0.42916   0.61017   0.97484   1.000
    C1851   C    0.43873   0.61935   0.95895   1.000
    C1852   C    0.43180   0.63617   0.95142   1.000
    H1853   H    0.41990   0.64299   0.95783   1.000
    O1854   O    0.56591   0.40649   0.98342   1.000
    O1855   O    0.58747   0.38439   0.98351   1.000
    C1856   C    0.57242   0.39127   0.97701   1.000
    C1857   C    0.56296   0.38185   0.96126   1.000
    C1858   C    0.57075   0.36560   0.95356   1.000
    H1859   H    0.58298   0.35930   0.95996   1.000
    O1860   O    0.56842   0.51746   0.90672   1.000
    O1861   O    0.59059   0.51701   0.88537   1.000
    C1862   C    0.57538   0.52368   0.89163   1.000
    C1863   C    0.56607   0.53936   0.88170   1.000
    C1864   C    0.57405   0.54702   0.86551   1.000
    H1865   H    0.58648   0.54070   0.85962   1.000
    O1866   O    0.43280   0.48263   0.90796   1.000
    O1867   O    0.41074   0.48292   0.88638   1.000
    C1868   C    0.42601   0.47639   0.89282   1.000
    C1869   C    0.43569   0.46105   0.88292   1.000
    C1870   C    0.42858   0.45414   0.86602   1.000
    H1871   H    0.41621   0.46045   0.85989   1.000
    O1872   O    0.51998   0.59231   0.93127   1.000
    O1873   O    0.52016   0.61407   0.90939   1.000
    C1874   C    0.52646   0.60745   0.92465   1.000
    C1875   C    0.54183   0.61709   0.93455   1.000
    C1876   C    0.54965   0.63353   0.92718   1.000
    H1877   H    0.54408   0.63954   0.91442   1.000
    O1878   O    0.48138   0.40836   0.93323   1.000
    O1879   O    0.48078   0.38624   0.91184   1.000
    C1880   C    0.47457   0.39324   0.92693   1.000
    C1881   C    0.45895   0.38399   0.93697   1.000
    C1882   C    0.45132   0.36722   0.93019   1.000
    H1883   H    0.45731   0.36064   0.91797   1.000
    O1884   O    0.59333   0.56707   0.98208   1.000
    O1885   O    0.61520   0.58877   0.98172   1.000
    C1886   C    0.60845   0.57361   0.97547   1.000
    C1887   C    0.61794   0.56399   0.95984   1.000
    C1888   C    0.63415   0.57174   0.95204   1.000
    H1889   H    0.64030   0.58407   0.95829   1.000
    O1890   O    0.40662   0.43454   0.98376   1.000
    O1891   O    0.38486   0.41274   0.98398   1.000
    C1892   C    0.39147   0.42784   0.97736   1.000
    C1893   C    0.38188   0.43738   0.96160   1.000
    C1894   C    0.36514   0.43021   0.95422   1.000
    H1895   H    0.35865   0.41815   0.96069   1.000
    C1896   C    0.45146   0.45243   0.89094   1.000
    H1897   H    0.45683   0.45751   0.90413   1.000
    C1898   C    0.43680   0.43858   0.85738   1.000
    C1899   C    0.54999   0.54771   0.88921   1.000
    H1900   H    0.54399   0.54209   0.90191   1.000
    C1901   C    0.56636   0.56305   0.85703   1.000
    C1902   C    0.39014   0.45300   0.95301   1.000
    H1903   H    0.40322   0.45838   0.95840   1.000
    C1904   C    0.35676   0.43839   0.93840   1.000
    C1905   C    0.61016   0.54793   0.95170   1.000
    H1906   H    0.59746   0.54207   0.95747   1.000
    C1907   C    0.64233   0.56405   0.93602   1.000
    C1908   C    0.45093   0.39235   0.95285   1.000
    H1909   H    0.45648   0.40546   0.95798   1.000
    C1910   C    0.43588   0.35889   0.93897   1.000
    C1911   C    0.54961   0.60917   0.95081   1.000
    H1912   H    0.54390   0.59630   0.95639   1.000
    C1913   C    0.56526   0.64180   0.93569   1.000
    C1914   C    0.45218   0.54877   0.89020   1.000
    H1915   H    0.45750   0.54359   0.90342   1.000
    C1916   C    0.43778   0.56285   0.85647   1.000
    C1917   C    0.54921   0.45053   0.89056   1.000
    H1918   H    0.54338   0.45637   0.90322   1.000
    C1919   C    0.56518   0.43476   0.85842   1.000
    C1920   C    0.54715   0.38989   0.95279   1.000
    H1921   H    0.54131   0.40265   0.95846   1.000
    C1922   C    0.56324   0.35762   0.93735   1.000
    C1923   C    0.45411   0.61064   0.95039   1.000
    H1924   H    0.45931   0.59748   0.95588   1.000
    C1925   C    0.43998   0.64419   0.93549   1.000
    C1926   C    0.39243   0.55043   0.95236   1.000
    H1927   H    0.40572   0.54512   0.95738   1.000
    C1928   C    0.35857   0.56493   0.93865   1.000
    C1929   C    0.60912   0.45044   0.95284   1.000
    H1930   H    0.59628   0.45638   0.95823   1.000
    C1931   C    0.64170   0.43424   0.93812   1.000
    O1932   O    0.51906   0.43402   0.09549   1.000
    O1933   O    0.51890   0.41241   0.11752   1.000
    C1934   C    0.52561   0.42735   0.11061   1.000
    C1935   C    0.54168   0.43673   0.11973   1.000
    C1936   C    0.54978   0.42930   0.13609   1.000
    H1937   H    0.54383   0.41696   0.14255   1.000
    O1938   O    0.48338   0.56933   0.09389   1.000
    O1939   O    0.48396   0.59094   0.11580   1.000
    C1940   C    0.47720   0.57595   0.10913   1.000
    C1941   C    0.46155   0.56648   0.11884   1.000
    C1942   C    0.45456   0.57364   0.13569   1.000
    H1943   H    0.46105   0.58581   0.14191   1.000
    O1944   O    0.40833   0.52078   0.06800   1.000
    O1945   O    0.38644   0.52151   0.08962   1.000
    C1946   C    0.39328   0.52764   0.07443   1.000
    C1947   C    0.38410   0.54339   0.06450   1.000
    C1948   C    0.36759   0.55140   0.07152   1.000
    H1949   H    0.36112   0.54562   0.08392   1.000
    O1950   O    0.59471   0.48149   0.06764   1.000
    O1951   O    0.61672   0.48138   0.08925   1.000
    C1952   C    0.60981   0.47484   0.07427   1.000
    C1953   C    0.61889   0.45882   0.06484   1.000
    C1954   C    0.63526   0.45061   0.07215   1.000
    H1955   H    0.64184   0.45649   0.08444   1.000
    O1956   O    0.56618   0.40656   0.02003   1.000
    O1957   O    0.58765   0.38438   0.01996   1.000
    C1958   C    0.57267   0.39130   0.02650   1.000
    C1959   C    0.56312   0.38186   0.04225   1.000
    C1960   C    0.56996   0.36482   0.04930   1.000
    H1961   H    0.58191   0.35824   0.04275   1.000
    O1962   O    0.43563   0.59566   0.01829   1.000
    O1963   O    0.41396   0.61766   0.01785   1.000
    C1964   C    0.42896   0.61088   0.02459   1.000
    C1965   C    0.43821   0.62029   0.04052   1.000
    C1966   C    0.43020   0.63632   0.04850   1.000
    H1967   H    0.41790   0.64255   0.04218   1.000
    O1968   O    0.43351   0.48430   0.09421   1.000
    O1969   O    0.41166   0.48489   0.11587   1.000
    C1970   C    0.42681   0.47818   0.10944   1.000
    C1971   C    0.43635   0.46270   0.11944   1.000
    C1972   C    0.42895   0.45574   0.13619   1.000
    H1973   H    0.41656   0.46214   0.14210   1.000
    O1974   O    0.56919   0.51844   0.09245   1.000
    O1975   O    0.59116   0.51843   0.11412   1.000
    C1976   C    0.57594   0.52491   0.10750   1.000
    C1977   C    0.56641   0.54054   0.11712   1.000
    C1978   C    0.57406   0.54786   0.13358   1.000
    H1979   H    0.58637   0.54143   0.13970   1.000
    O1980   O    0.48217   0.40911   0.06995   1.000
    O1981   O    0.48186   0.38736   0.09185   1.000
    C1982   C    0.47560   0.39400   0.07657   1.000
    C1983   C    0.46019   0.38437   0.06666   1.000
    C1984   C    0.45322   0.36732   0.07345   1.000
    H1985   H    0.45947   0.36094   0.08572   1.000
    O1986   O    0.52006   0.59459   0.06829   1.000
    O1987   O    0.52057   0.61635   0.09005   1.000
    C1988   C    0.52679   0.60964   0.07486   1.000
    C1989   C    0.54245   0.61898   0.06506   1.000
    C1990   C    0.55064   0.63528   0.07235   1.000
    H1991   H    0.54506   0.64149   0.08496   1.000
    O1992   O    0.40679   0.43465   0.02036   1.000
    O1993   O    0.38504   0.41284   0.02061   1.000
    C1994   C    0.39168   0.42803   0.02695   1.000
    C1995   C    0.38215   0.43781   0.04254   1.000
    C1996   C    0.36545   0.43076   0.05015   1.000
    H1997   H    0.35899   0.41852   0.04404   1.000
    O1998   O    0.59385   0.56741   0.01855   1.000
    O1999   O    0.61574   0.58909   0.01804   1.000
    C2000   C    0.60915   0.57400   0.02468   1.000
    C2001   C    0.61906   0.56444   0.04015   1.000
    C2002   C    0.63543   0.57219   0.04766   1.000
    H2003   H    0.64137   0.58463   0.04140   1.000
    O2004   O    0.51992   0.56848   0.09335   1.000
    O2005   O    0.52057   0.59014   0.11520   1.000
    C2006   C    0.52671   0.57491   0.10841   1.000
    C2007   C    0.54237   0.56493   0.11771   1.000
    C2008   C    0.55029   0.57203   0.13420   1.000
    H2009   H    0.54453   0.58451   0.14055   1.000
    O2010   O    0.48240   0.43444   0.09569   1.000
    O2011   O    0.48205   0.41286   0.11773   1.000
    C2012   C    0.47577   0.42804   0.11085   1.000
    C2013   C    0.46016   0.43805   0.12015   1.000
    C2014   C    0.45237   0.43117   0.13684   1.000
    H2015   H    0.45828   0.41886   0.14346   1.000
    O2016   O    0.59523   0.51808   0.06744   1.000
    O2017   O    0.61724   0.51805   0.08905   1.000
    C2018   C    0.61046   0.52450   0.07395   1.000
    C2019   C    0.61988   0.54018   0.06423   1.000
    C2020   C    0.63630   0.54814   0.07157   1.000
    H2021   H    0.64265   0.54229   0.08403   1.000
    O2022   O    0.40740   0.48417   0.06906   1.000
    O2023   O    0.38549   0.48485   0.09066   1.000
    C2024   C    0.39211   0.47803   0.07571   1.000
    C2025   C    0.38232   0.46236   0.06629   1.000
    C2026   C    0.36558   0.45516   0.07361   1.000
    H2027   H    0.35948   0.46149   0.08591   1.000
    O2028   O    0.56845   0.59337   0.01863   1.000
    O2029   O    0.59042   0.61497   0.01810   1.000
    C2030   C    0.57533   0.60852   0.02483   1.000
    C2031   C    0.56615   0.61836   0.04053   1.000
    C2032   C    0.57411   0.63464   0.04801   1.000
    H2033   H    0.58640   0.64064   0.04154   1.000
    O2034   O    0.43266   0.40919   0.02034   1.000
    O2035   O    0.41096   0.38733   0.02057   1.000
    C2036   C    0.42615   0.39402   0.02690   1.000
    C2037   C    0.43600   0.38439   0.04243   1.000
    C2038   C    0.42918   0.36739   0.04955   1.000
    H2039   H    0.41714   0.36085   0.04313   1.000
    O2040   O    0.56930   0.48200   0.09332   1.000
    O2041   O    0.59130   0.48200   0.11495   1.000
    C2042   C    0.57601   0.47568   0.10853   1.000
    C2043   C    0.56632   0.46037   0.11854   1.000
    C2044   C    0.57412   0.45281   0.13489   1.000
    H2045   H    0.58666   0.45894   0.14074   1.000
    O2046   O    0.43335   0.52082   0.09422   1.000
    O2047   O    0.41149   0.52142   0.11589   1.000
    C2048   C    0.42678   0.52754   0.10927   1.000
    C2049   C    0.43676   0.54297   0.11885   1.000
    C2050   C    0.42990   0.55044   0.13566   1.000
    H2051   H    0.41762   0.54440   0.14211   1.000
    O2052   O    0.48361   0.59495   0.06829   1.000
    O2053   O    0.48395   0.61664   0.09011   1.000
    C2054   C    0.47735   0.61016   0.07496   1.000
    C2055   C    0.46179   0.61994   0.06530   1.000
    C2056   C    0.45355   0.63598   0.07310   1.000
    H2057   H    0.45900   0.64166   0.08602   1.000
    O2058   O    0.51853   0.40797   0.07048   1.000
    O2059   O    0.51832   0.38626   0.09242   1.000
    C2060   C    0.52473   0.39266   0.07716   1.000
    C2061   C    0.53987   0.38257   0.06723   1.000
    C2062   C    0.54701   0.36555   0.07417   1.000
    H2063   H    0.54094   0.35929   0.08654   1.000
    O2064   O    0.59219   0.43175   0.01962   1.000
    O2065   O    0.61361   0.40950   0.01958   1.000
    C2066   C    0.60734   0.42484   0.02591   1.000
    C2067   C    0.61746   0.43433   0.04118   1.000
    C2068   C    0.63376   0.42633   0.04866   1.000
    H2069   H    0.63948   0.41372   0.04254   1.000
    O2070   O    0.41010   0.57009   0.01850   1.000
    O2071   O    0.38846   0.59212   0.01807   1.000
    C2072   C    0.39494   0.57693   0.02472   1.000
    C2073   C    0.38505   0.56752   0.04025   1.000
    C2074   C    0.36856   0.57528   0.04747   1.000
    H2075   H    0.36257   0.58765   0.04102   1.000
    C2076   C    0.55000   0.45236   0.11117   1.000
    H2077   H    0.54411   0.45795   0.09836   1.000
    C2078   C    0.56612   0.43718   0.14365   1.000
    C2079   C    0.45268   0.55101   0.11065   1.000
    H2080   H    0.45785   0.54558   0.09753   1.000
    C2081   C    0.43872   0.56578   0.14418   1.000
    C2082   C    0.39263   0.55146   0.04874   1.000
    H2083   H    0.40555   0.54560   0.04345   1.000
    C2084   C    0.35984   0.56744   0.06316   1.000
    C2085   C    0.61023   0.45066   0.04923   1.000
    H2086   H    0.59744   0.45666   0.04371   1.000
    C2087   C    0.64265   0.43424   0.06421   1.000
    C2088   C    0.54794   0.39050   0.05118   1.000
    H2089   H    0.54277   0.40377   0.04594   1.000
    C2090   C    0.56205   0.35656   0.06525   1.000
    C2091   C    0.45412   0.61233   0.04891   1.000
    H2092   H    0.46014   0.59975   0.04303   1.000
    C2093   C    0.43762   0.64415   0.06489   1.000
    C2094   C    0.45210   0.45392   0.11166   1.000
    H2095   H    0.45772   0.45907   0.09859   1.000
    C2096   C    0.43677   0.43997   0.14493   1.000
    C2097   C    0.55045   0.54906   0.10934   1.000
    H2098   H    0.54469   0.54370   0.09643   1.000
    C2099   C    0.56624   0.56366   0.14208   1.000
    C2100   C    0.45162   0.39269   0.05100   1.000
    H2101   H    0.45674   0.40597   0.04584   1.000
    C2102   C    0.43770   0.35880   0.06505   1.000
    C2103   C    0.55022   0.61075   0.04904   1.000
    H2104   H    0.54423   0.59800   0.04353   1.000
    C2105   C    0.56658   0.64312   0.06399   1.000
    C2106   C    0.39036   0.45369   0.05065   1.000
    H2107   H    0.40339   0.45900   0.04510   1.000
    C2108   C    0.35705   0.43934   0.06570   1.000
    C2109   C    0.61150   0.54834   0.04841   1.000
    H2110   H    0.59865   0.54253   0.04289   1.000
    C2111   C    0.64403   0.56428   0.06345   1.000
    C2112   C    0.10692   0.13845   0.25720   1.000
    C2113   C    0.09768   0.13094   0.24176   1.000
    C2114   C    0.10463   0.11495   0.23282   1.000
    C2115   C    0.12101   0.10648   0.23982   1.000
    C2116   C    0.13030   0.11404   0.25525   1.000
    C2117   C    0.12332   0.13008   0.26416   1.000
    C2118   C    0.09403   0.10726   0.21674   1.000
    C2119   C    0.10163   0.09599   0.20387   1.000
    C2120   C    0.09119   0.08829   0.18771   1.000
    C2121   C    0.10144   0.08153   0.17246   1.000
    C2122   C    0.09236   0.07368   0.15711   1.000
    C2123   C    0.07277   0.07227   0.15669   1.000
    C2124   C    0.06244   0.07905   0.17189   1.000
    C2125   C    0.07153   0.08689   0.18732   1.000
    H2126   H    0.10120   0.15090   0.26360   1.000
    H2127   H    0.08505   0.13770   0.23673   1.000
    H2128   H    0.12653   0.09377   0.23379   1.000
    H2129   H    0.14271   0.10704   0.26041   1.000
    H2130   H    0.07969   0.11183   0.21514   1.000
    H2131   H    0.11641   0.09282   0.20459   1.000
    H2132   H    0.11656   0.08236   0.17240   1.000
    H2133   H    0.10069   0.06881   0.14548   1.000
    H2134   H    0.04734   0.07790   0.17204   1.000
    H2135   H    0.06310   0.09137   0.19899   1.000
    C2136   C    0.14169   0.61406   0.75385   1.000
    C2137   C    0.13436   0.60517   0.73817   1.000
    C2138   C    0.11653   0.60977   0.73142   1.000
    C2139   C    0.10627   0.62388   0.74056   1.000
    C2140   C    0.11362   0.63279   0.75635   1.000
    C2141   C    0.13138   0.62788   0.76326   1.000
    C2142   C    0.10965   0.59983   0.71460   1.000
    C2143   C    0.09164   0.59913   0.70935   1.000
    C2144   C    0.08499   0.58876   0.69266   1.000
    C2145   C    0.06586   0.58466   0.69115   1.000
    C2146   C    0.05884   0.57547   0.67544   1.000
    C2147   C    0.07083   0.57014   0.66088   1.000
    C2148   C    0.08998   0.57408   0.66237   1.000
    C2149   C    0.09699   0.58342   0.67800   1.000
    H2150   H    0.15555   0.61005   0.75843   1.000
    H2151   H    0.14270   0.59457   0.73129   1.000
    H2152   H    0.09271   0.62832   0.73551   1.000
    H2153   H    0.10532   0.64344   0.76315   1.000
    H2154   H    0.11994   0.59193   0.70687   1.000
    H2155   H    0.08111   0.60571   0.71795   1.000
    H2156   H    0.05626   0.58866   0.70213   1.000
    H2157   H    0.04400   0.57259   0.67462   1.000
    H2158   H    0.09945   0.57053   0.65114   1.000
    H2159   H    0.11170   0.58682   0.67814   1.000
    C2160   C    0.60745   0.13501   0.76213   1.000
    C2161   C    0.59812   0.12708   0.74702   1.000
    C2162   C    0.60604   0.11223   0.73711   1.000
    C2163   C    0.62354   0.10518   0.74289   1.000
    C2164   C    0.63296   0.11313   0.75810   1.000
    C2165   C    0.62508   0.12825   0.76797   1.000
    C2166   C    0.59527   0.10446   0.72120   1.000
    C2167   C    0.60288   0.09448   0.70734   1.000
    C2168   C    0.59209   0.08763   0.69100   1.000
    C2169   C    0.60195   0.08265   0.67484   1.000
    C2170   C    0.59255   0.07576   0.65923   1.000
    C2171   C    0.57302   0.07359   0.65942   1.000
    C2172   C    0.56305   0.07872   0.67546   1.000
    C2173   C    0.57248   0.08553   0.69117   1.000
    H2174   H    0.60055   0.14649   0.76906   1.000
    H2175   H    0.58463   0.13272   0.74297   1.000
    H2176   H    0.62991   0.09337   0.73596   1.000
    H2177   H    0.64636   0.10730   0.76207   1.000
    H2178   H    0.58064   0.10825   0.72043   1.000
    H2179   H    0.61782   0.09203   0.70729   1.000
    H2180   H    0.61702   0.08409   0.67429   1.000
    H2181   H    0.60057   0.07207   0.64696   1.000
    H2182   H    0.54803   0.07689   0.67604   1.000
    H2183   H    0.56433   0.08863   0.70348   1.000
    C2184   C    0.60809   0.63800   0.25895   1.000
    C2185   C    0.59873   0.62978   0.24398   1.000
    C2186   C    0.60598   0.61380   0.23533   1.000
    C2187   C    0.62267   0.60590   0.24224   1.000
    C2188   C    0.63207   0.61414   0.25722   1.000
    C2189   C    0.62493   0.63033   0.26574   1.000
    C2190   C    0.59553   0.60564   0.21947   1.000
    C2191   C    0.60355   0.59488   0.20645   1.000
    C2192   C    0.59338   0.58723   0.19015   1.000
    C2193   C    0.60381   0.58155   0.17460   1.000
    C2194   C    0.59496   0.57404   0.15899   1.000
    C2195   C    0.57544   0.57192   0.15862   1.000
    C2196   C    0.56493   0.57755   0.17414   1.000
    C2197   C    0.57380   0.58502   0.18984   1.000
    H2198   H    0.60197   0.65033   0.26516   1.000
    H2199   H    0.58580   0.63602   0.23906   1.000
    H2200   H    0.62841   0.59320   0.23639   1.000
    H2201   H    0.64490   0.60773   0.26208   1.000
    H2202   H    0.58101   0.60964   0.21801   1.000
    H2203   H    0.61845   0.59232   0.20704   1.000
    H2204   H    0.61888   0.58305   0.17448   1.000
    H2205   H    0.60338   0.57001   0.14710   1.000
    H2206   H    0.54989   0.57580   0.17428   1.000
    H2207   H    0.56528   0.58866   0.20174   1.000
    C2208   C    0.86235   0.89208   0.25957   1.000
    C2209   C    0.87007   0.90139   0.24430   1.000
    C2210   C    0.88596   0.89436   0.23535   1.000
    C2211   C    0.89422   0.87782   0.24224   1.000
    C2212   C    0.88652   0.86846   0.25763   1.000
    C2213   C    0.87039   0.87541   0.26655   1.000
    C2214   C    0.89354   0.90501   0.21923   1.000
    C2215   C    0.90421   0.89737   0.20589   1.000
    C2216   C    0.91101   0.90784   0.18929   1.000
    C2217   C    0.91657   0.89761   0.17356   1.000
    C2218   C    0.92353   0.90669   0.15778   1.000
    C2219   C    0.92528   0.92627   0.15736   1.000
    C2220   C    0.91955   0.93661   0.17298   1.000
    C2221   C    0.91259   0.92750   0.18885   1.000
    H2222   H    0.85004   0.89824   0.26575   1.000
    H2223   H    0.86347   0.91414   0.23937   1.000
    H2224   H    0.90680   0.87220   0.23605   1.000
    H2225   H    0.89333   0.85582   0.26245   1.000
    H2226   H    0.88906   0.91941   0.21781   1.000
    H2227   H    0.90733   0.88256   0.20647   1.000
    H2228   H    0.91551   0.88250   0.17348   1.000
    H2229   H    0.92761   0.89835   0.14585   1.000
    H2230   H    0.92100   0.95168   0.17312   1.000
    H2231   H    0.90897   0.93593   0.20083   1.000
    C2232   C    0.86345   0.39149   0.75861   1.000
    C2233   C    0.87151   0.40059   0.74338   1.000
    C2234   C    0.88758   0.39341   0.73484   1.000
    C2235   C    0.89571   0.37701   0.74217   1.000
    C2236   C    0.88765   0.36784   0.75746   1.000
    C2237   C    0.87132   0.37490   0.76595   1.000
    C2238   C    0.89558   0.40382   0.71878   1.000
    C2239   C    0.90684   0.39608   0.70599   1.000
    C2240   C    0.91420   0.40638   0.68954   1.000
    C2241   C    0.92035   0.39602   0.67412   1.000
    C2242   C    0.92768   0.40499   0.65843   1.000
    C2243   C    0.92917   0.42458   0.65782   1.000
    C2244   C    0.92305   0.43502   0.67324   1.000
    C2245   C    0.91574   0.42603   0.68900   1.000
    H2246   H    0.85099   0.39768   0.76446   1.000
    H2247   H    0.86503   0.41328   0.73815   1.000
    H2248   H    0.90845   0.37131   0.73636   1.000
    H2249   H    0.89439   0.35527   0.76257   1.000
    H2250   H    0.89103   0.41815   0.71697   1.000
    H2251   H    0.91006   0.38132   0.70688   1.000
    H2252   H    0.91939   0.38090   0.67416   1.000
    H2253   H    0.93204   0.39657   0.64667   1.000
    H2254   H    0.92431   0.45011   0.67326   1.000
    H2255   H    0.91174   0.43453   0.70080   1.000
    C2256   C    0.36352   0.89198   0.76099   1.000
    C2257   C    0.37160   0.90133   0.74593   1.000
    C2258   C    0.38702   0.89371   0.73660   1.000
    C2259   C    0.39453   0.87661   0.74299   1.000
    C2260   C    0.38643   0.86721   0.75809   1.000
    C2261   C    0.37075   0.87473   0.76723   1.000
    C2262   C    0.39497   0.90425   0.72063   1.000
    C2263   C    0.40544   0.89638   0.70727   1.000
    C2264   C    0.41283   0.90673   0.69090   1.000
    C2265   C    0.41860   0.89642   0.67530   1.000
    C2266   C    0.42595   0.90542   0.65965   1.000
    C2267   C    0.42779   0.92497   0.65928   1.000
    C2268   C    0.42199   0.93537   0.67482   1.000
    C2269   C    0.41471   0.92636   0.69055   1.000
    H2270   H    0.35164   0.89842   0.76772   1.000
    H2271   H    0.36565   0.91456   0.74144   1.000
    H2272   H    0.40679   0.87052   0.73661   1.000
    H2273   H    0.39246   0.85404   0.76252   1.000
    H2274   H    0.39101   0.91881   0.71940   1.000
    H2275   H    0.40799   0.88146   0.70767   1.000
    H2276   H    0.41737   0.88132   0.67518   1.000
    H2277   H    0.43012   0.89707   0.64776   1.000
    H2278   H    0.42352   0.95044   0.67496   1.000
    H2279   H    0.41101   0.93484   0.70246   1.000
    C2280   C    0.38528   0.36062   0.25465   1.000
    C2281   C    0.39389   0.36824   0.23897   1.000
    C2282   C    0.38793   0.38536   0.23152   1.000
    C2283   C    0.37272   0.39459   0.23993   1.000
    C2284   C    0.36399   0.38692   0.25571   1.000
    C2285   C    0.37022   0.36984   0.26343   1.000
    C2286   C    0.39778   0.39259   0.21479   1.000
    C2287   C    0.39753   0.41052   0.20927   1.000
    C2288   C    0.40818   0.41751   0.19288   1.000
    C2289   C    0.41203   0.43671   0.19159   1.000
    C2290   C    0.42170   0.44395   0.17626   1.000
    C2291   C    0.42773   0.43212   0.16184   1.000
    C2292   C    0.42397   0.41291   0.16309   1.000
    C2293   C    0.41418   0.40567   0.17835   1.000
    H2294   H    0.39064   0.34740   0.25967   1.000
    H2295   H    0.40544   0.36072   0.23269   1.000
    H2296   H    0.36731   0.40757   0.23430   1.000
    H2297   H    0.35241   0.39451   0.26177   1.000
    H2298   H    0.40654   0.38271   0.20745   1.000
    H2299   H    0.39009   0.42077   0.21751   1.000
    H2300   H    0.40751   0.44617   0.20249   1.000
    H2301   H    0.42443   0.45883   0.17564   1.000
    H2302   H    0.42805   0.40356   0.15194   1.000
    H2303   H    0.41097   0.39091   0.17834   1.000
    C2304   C    0.88937   0.14129   0.74085   1.000
    C2305   C    0.89816   0.13434   0.75688   1.000
    C2306   C    0.89200   0.11775   0.76534   1.000
    C2307   C    0.87644   0.10848   0.75765   1.000
    C2308   C    0.86760   0.11546   0.74161   1.000
    C2309   C    0.87404   0.13189   0.73293   1.000
    C2310   C    0.90188   0.11097   0.78234   1.000
    C2311   C    0.90166   0.09309   0.78810   1.000
    C2312   C    0.91181   0.08612   0.80489   1.000
    C2313   C    0.91499   0.06681   0.80664   1.000
    C2314   C    0.92391   0.05947   0.82243   1.000
    C2315   C    0.92981   0.07128   0.83693   1.000
    C2316   C    0.92677   0.09063   0.83518   1.000
    C2317   C    0.91778   0.09799   0.81941   1.000
    H2318   H    0.89458   0.15413   0.73481   1.000
    H2319   H    0.90993   0.14191   0.76263   1.000
    H2320   H    0.87083   0.09599   0.76407   1.000
    H2321   H    0.85580   0.10788   0.73599   1.000
    H2322   H    0.91043   0.12102   0.78967   1.000
    H2323   H    0.89442   0.08277   0.77978   1.000
    H2324   H    0.91050   0.05733   0.79575   1.000
    H2325   H    0.92615   0.04451   0.82333   1.000
    H2326   H    0.93081   0.10002   0.84631   1.000
    H2327   H    0.91512   0.11287   0.81899   1.000
    C2328   C    0.85933   0.60994   0.24474   1.000
    C2329   C    0.86695   0.60066   0.26017   1.000
    C2330   C    0.88372   0.60677   0.26827   1.000
    C2331   C    0.89262   0.62262   0.26074   1.000
    C2332   C    0.88499   0.63191   0.24529   1.000
    C2333   C    0.86825   0.62570   0.23709   1.000
    C2334   C    0.89092   0.59674   0.28496   1.000
    C2335   C    0.90876   0.59755   0.29075   1.000
    C2336   C    0.91580   0.58787   0.30772   1.000
    C2337   C    0.93514   0.58510   0.30972   1.000
    C2338   C    0.94246   0.57671   0.32581   1.000
    C2339   C    0.93055   0.57093   0.34026   1.000
    C2340   C    0.91120   0.57364   0.33830   1.000
    C2341   C    0.90388   0.58212   0.32228   1.000
    H2342   H    0.84646   0.60466   0.23886   1.000
    H2343   H    0.85970   0.58860   0.26578   1.000
    H2344   H    0.90521   0.62822   0.26693   1.000
    H2345   H    0.89215   0.64413   0.24002   1.000
    H2346   H    0.88114   0.58782   0.29224   1.000
    H2347   H    0.91890   0.60510   0.28248   1.000
    H2348   H    0.94465   0.58950   0.29880   1.000
    H2349   H    0.95743   0.57473   0.32696   1.000
    H2350   H    0.90175   0.56971   0.34943   1.000
    H2351   H    0.88898   0.58458   0.32171   1.000
    C2352   C    0.39118   0.13723   0.23826   1.000
    C2353   C    0.40048   0.12936   0.25355   1.000
    C2354   C    0.39295   0.11398   0.26307   1.000
    C2355   C    0.37596   0.10636   0.25668   1.000
    C2356   C    0.36662   0.11425   0.24134   1.000
    C2357   C    0.37408   0.12984   0.23196   1.000
    C2358   C    0.40355   0.10615   0.27919   1.000
    C2359   C    0.39581   0.09559   0.29261   1.000
    C2360   C    0.40621   0.08817   0.30905   1.000
    C2361   C    0.39590   0.08195   0.32451   1.000
    C2362   C    0.40488   0.07445   0.34016   1.000
    C2363   C    0.42447   0.07285   0.34072   1.000
    C2364   C    0.43488   0.07914   0.32534   1.000
    C2365   C    0.42587   0.08661   0.30960   1.000
    H2366   H    0.39759   0.14906   0.23139   1.000
    H2367   H    0.41362   0.13541   0.25802   1.000
    H2368   H    0.36991   0.09415   0.26322   1.000
    H2369   H    0.35357   0.10807   0.23689   1.000
    H2370   H    0.41806   0.11018   0.28040   1.000
    H2371   H    0.38093   0.09290   0.29218   1.000
    H2372   H    0.38077   0.08293   0.32451   1.000
    H2373   H    0.39648   0.06995   0.35190   1.000
    H2374   H    0.44997   0.07784   0.32531   1.000
    H2375   H    0.43439   0.09069   0.29784   1.000
    C2376   C    0.35851   0.60842   0.74273   1.000
    C2377   C    0.36583   0.59931   0.75843   1.000
    C2378   C    0.38206   0.60593   0.76719   1.000
    C2379   C    0.39062   0.62219   0.76017   1.000
    C2380   C    0.38330   0.63131   0.74449   1.000
    C2381   C    0.36719   0.62452   0.73550   1.000
    C2382   C    0.38922   0.59600   0.78396   1.000
    C2383   C    0.40710   0.59690   0.78962   1.000
    C2384   C    0.41438   0.58740   0.80659   1.000
    C2385   C    0.43374   0.58455   0.80825   1.000
    C2386   C    0.44133   0.57634   0.82430   1.000
    C2387   C    0.42969   0.57087   0.83910   1.000
    C2388   C    0.41031   0.57369   0.83747   1.000
    C2389   C    0.40272   0.58194   0.82145   1.000
    H2390   H    0.34608   0.60275   0.73628   1.000
    H2391   H    0.35883   0.58695   0.76368   1.000
    H2392   H    0.40273   0.62819   0.76693   1.000
    H2393   H    0.39025   0.64381   0.73963   1.000
    H2394   H    0.37950   0.58708   0.79133   1.000
    H2395   H    0.41715   0.60440   0.78117   1.000
    H2396   H    0.44306   0.58872   0.79709   1.000
    H2397   H    0.45631   0.57423   0.82513   1.000
    H2398   H    0.40105   0.57000   0.84884   1.000
    H2399   H    0.38782   0.58447   0.82107   1.000
    C2400   C    0.14150   0.88802   0.74334   1.000
    C2401   C    0.13422   0.89674   0.75918   1.000
    C2402   C    0.11739   0.89065   0.76713   1.000
    C2403   C    0.10814   0.87529   0.75905   1.000
    C2404   C    0.11543   0.86656   0.74318   1.000
    C2405   C    0.13218   0.87284   0.73506   1.000
    C2406   C    0.11042   0.90031   0.78410   1.000
    C2407   C    0.09258   0.89967   0.78989   1.000
    C2408   C    0.08559   0.90935   0.80686   1.000
    C2409   C    0.06625   0.91210   0.80879   1.000
    C2410   C    0.05892   0.92057   0.82476   1.000
    C2411   C    0.07080   0.92648   0.83922   1.000
    C2412   C    0.09016   0.92382   0.83733   1.000
    C2413   C    0.09750   0.91525   0.82140   1.000
    H2414   H    0.15452   0.89322   0.73773   1.000
    H2415   H    0.14177   0.90838   0.76521   1.000
    H2416   H    0.09546   0.86972   0.76505   1.000
    H2417   H    0.10786   0.85487   0.73734   1.000
    H2418   H    0.12034   0.90893   0.79153   1.000
    H2419   H    0.08233   0.89237   0.78154   1.000
    H2420   H    0.05673   0.90763   0.79790   1.000
    H2421   H    0.04394   0.92254   0.82579   1.000
    H2422   H    0.09962   0.92787   0.84843   1.000
    H2423   H    0.11242   0.91289   0.82087   1.000
    C2424   C    0.11653   0.35874   0.24681   1.000
    C2425   C    0.10793   0.36609   0.26265   1.000
    C2426   C    0.11211   0.38419   0.26885   1.000
    C2427   C    0.12558   0.39467   0.25900   1.000
    C2428   C    0.13423   0.38727   0.24307   1.000
    C2429   C    0.12966   0.36926   0.23668   1.000
    C2430   C    0.10234   0.39113   0.28579   1.000
    C2431   C    0.10124   0.40919   0.29076   1.000
    C2432   C    0.09093   0.41595   0.30751   1.000
    C2433   C    0.08678   0.43511   0.30885   1.000
    C2434   C    0.07760   0.44226   0.32451   1.000
    C2435   C    0.07231   0.43039   0.33924   1.000
    C2436   C    0.07629   0.41121   0.33792   1.000
    C2437   C    0.08562   0.40406   0.32232   1.000
    H2438   H    0.11283   0.34470   0.24265   1.000
    H2439   H    0.09783   0.35758   0.27003   1.000
    H2440   H    0.12968   0.40846   0.26357   1.000
    H2441   H    0.14434   0.39574   0.23569   1.000
    H2442   H    0.09493   0.38076   0.29389   1.000
    H2443   H    0.10744   0.41973   0.28187   1.000
    H2444   H    0.09072   0.44463   0.29775   1.000
    H2445   H    0.07465   0.45711   0.32514   1.000
    H2446   H    0.07275   0.40180   0.34925   1.000
    H2447   H    0.08899   0.38932   0.32232   1.000
    C2448   C    0.64191   0.88913   0.24612   1.000
    C2449   C    0.63459   0.89818   0.26171   1.000
    C2450   C    0.61751   0.89255   0.26944   1.000
    C2451   C    0.60803   0.87732   0.26140   1.000
    C2452   C    0.61536   0.86825   0.24575   1.000
    C2453   C    0.63236   0.87410   0.23784   1.000
    C2454   C    0.61051   0.90260   0.28611   1.000
    C2455   C    0.59256   0.90256   0.29151   1.000
    C2456   C    0.58561   0.91265   0.30821   1.000
    C2457   C    0.56635   0.91615   0.30969   1.000
    C2458   C    0.55904   0.92501   0.32544   1.000
    C2459   C    0.57086   0.93054   0.34009   1.000
    C2460   C    0.59014   0.92719   0.33862   1.000
    C2461   C    0.59745   0.91822   0.32292   1.000
    H2462   H    0.65512   0.89400   0.24068   1.000
    H2463   H    0.64230   0.90974   0.26772   1.000
    H2464   H    0.59513   0.87210   0.26728   1.000
    H2465   H    0.60764   0.85665   0.23992   1.000
    H2466   H    0.62054   0.91105   0.29360   1.000
    H2467   H    0.58224   0.89543   0.28307   1.000
    H2468   H    0.55689   0.91192   0.29866   1.000
    H2469   H    0.54411   0.92748   0.32620   1.000
    H2470   H    0.59950   0.93094   0.34991   1.000
    H2471   H    0.61227   0.91525   0.32274   1.000
    C2472   C    0.60708   0.36332   0.73865   1.000
    C2473   C    0.59779   0.37117   0.75389   1.000
    C2474   C    0.60574   0.38597   0.76393   1.000
    C2475   C    0.62315   0.39306   0.75807   1.000
    C2476   C    0.63247   0.38519   0.74277   1.000
    C2477   C    0.62459   0.37014   0.73291   1.000
    C2478   C    0.59515   0.39374   0.78002   1.000
    C2479   C    0.60300   0.40368   0.79384   1.000
    C2480   C    0.59260   0.41096   0.81029   1.000
    C2481   C    0.60293   0.41673   0.82593   1.000
    C2482   C    0.59399   0.42415   0.84158   1.000
    C2483   C    0.57443   0.42608   0.84199   1.000
    C2484   C    0.56400   0.42018   0.82647   1.000
    C2485   C    0.57296   0.41281   0.81072   1.000
    H2486   H    0.60034   0.35194   0.73138   1.000
    H2487   H    0.58434   0.36553   0.75792   1.000
    H2488   H    0.62956   0.40483   0.76501   1.000
    H2489   H    0.64586   0.39091   0.73875   1.000
    H2490   H    0.58051   0.39013   0.78086   1.000
    H2491   H    0.61795   0.40596   0.79370   1.000
    H2492   H    0.61803   0.41552   0.82605   1.000
    H2493   H    0.60242   0.42834   0.85342   1.000
    H2494   H    0.54893   0.42175   0.82630   1.000
    H2495   H    0.56441   0.40906   0.79885   1.000
    C2496   C    0.25182   0.14080   0.11553   1.000
    C2497   C    0.23599   0.13326   0.10706   1.000
    C2498   C    0.23000   0.11510   0.11138   1.000
    C2499   C    0.24006   0.10475   0.12487   1.000
    C2500   C    0.25601   0.11233   0.13338   1.000
    C2501   C    0.26218   0.13040   0.12868   1.000
    C2502   C    0.21306   0.10797   0.10169   1.000
    C2503   C    0.20802   0.08990   0.10105   1.000
    C2504   C    0.19128   0.08299   0.09078   1.000
    C2505   C    0.18984   0.06375   0.08717   1.000
    C2506   C    0.17423   0.05650   0.07793   1.000
    C2507   C    0.15968   0.06836   0.07203   1.000
    C2508   C    0.16107   0.08760   0.07553   1.000
    C2509   C    0.17659   0.09485   0.08493   1.000
    H2510   H    0.25581   0.15487   0.11172   1.000
    H2511   H    0.22843   0.14167   0.09693   1.000
    H2512   H    0.23569   0.09091   0.12908   1.000
    H2513   H    0.26355   0.10394   0.14350   1.000
    H2514   H    0.20500   0.11819   0.09396   1.000
    H2515   H    0.21682   0.07946   0.10762   1.000
    H2516   H    0.20084   0.05425   0.09155   1.000
    H2517   H    0.17352   0.04159   0.07538   1.000
    H2518   H    0.14984   0.09700   0.07151   1.000
    H2519   H    0.17664   0.10965   0.08789   1.000
    C2520   C    0.25837   0.64138   0.60861   1.000
    C2521   C    0.24288   0.63383   0.59942   1.000
    C2522   C    0.23390   0.61787   0.60644   1.000
    C2523   C    0.24058   0.60977   0.62310   1.000
    C2524   C    0.25605   0.61733   0.63231   1.000
    C2525   C    0.26517   0.63323   0.62520   1.000
    C2526   C    0.21724   0.61062   0.59646   1.000
    C2527   C    0.21121   0.59292   0.59802   1.000
    C2528   C    0.19430   0.58570   0.58842   1.000
    C2529   C    0.19241   0.56631   0.58610   1.000
    C2530   C    0.17640   0.55882   0.57779   1.000
    C2531   C    0.16185   0.57059   0.57170   1.000
    C2532   C    0.16370   0.59001   0.57402   1.000
    C2533   C    0.17969   0.59750   0.58236   1.000
    H2534   H    0.26492   0.65362   0.60265   1.000
    H2535   H    0.23792   0.64046   0.58671   1.000
    H2536   H    0.23368   0.59787   0.62937   1.000
    H2537   H    0.26064   0.61075   0.64515   1.000
    H2538   H    0.21022   0.62013   0.58697   1.000
    H2539   H    0.21929   0.58297   0.60613   1.000
    H2540   H    0.20337   0.55689   0.59075   1.000
    H2541   H    0.17541   0.54381   0.57609   1.000
    H2542   H    0.15252   0.59939   0.56986   1.000
    H2543   H    0.18024   0.61246   0.58447   1.000
    C2544   C    0.75622   0.14110   0.61131   1.000
    C2545   C    0.74082   0.13349   0.60207   1.000
    C2546   C    0.73259   0.11686   0.60838   1.000
    C2547   C    0.74011   0.10801   0.62433   1.000
    C2548   C    0.75557   0.11565   0.63360   1.000
    C2549   C    0.76377   0.13234   0.62724   1.000
    C2550   C    0.71583   0.10982   0.59834   1.000
    C2551   C    0.70955   0.09218   0.59949   1.000
    C2552   C    0.69263   0.08541   0.58950   1.000
    C2553   C    0.69043   0.06610   0.58682   1.000
    C2554   C    0.67440   0.05903   0.57817   1.000
    C2555   C    0.66012   0.07113   0.57207   1.000
    C2556   C    0.66232   0.09047   0.57462   1.000
    C2557   C    0.67833   0.09755   0.58333   1.000
    H2558   H    0.76218   0.15386   0.60582   1.000
    H2559   H    0.73532   0.14066   0.58989   1.000
    H2560   H    0.73390   0.09546   0.63003   1.000
    H2561   H    0.76085   0.10861   0.64593   1.000
    H2562   H    0.70889   0.11958   0.58905   1.000
    H2563   H    0.71740   0.08196   0.60747   1.000
    H2564   H    0.70115   0.05641   0.59149   1.000
    H2565   H    0.67315   0.04406   0.57630   1.000
    H2566   H    0.65137   0.10011   0.57043   1.000
    H2567   H    0.67908   0.11246   0.58565   1.000
    C2568   C    0.76264   0.60731   0.13593   1.000
    C2569   C    0.74792   0.59756   0.12763   1.000
    C2570   C    0.73801   0.60529   0.11256   1.000
    C2571   C    0.74357   0.62284   0.10552   1.000
    C2572   C    0.75833   0.63261   0.11383   1.000
    C2573   C    0.76792   0.62505   0.12926   1.000
    C2574   C    0.72224   0.59449   0.10450   1.000
    C2575   C    0.70822   0.60237   0.09477   1.000
    C2576   C    0.69196   0.59191   0.08725   1.000
    C2577   C    0.67611   0.60214   0.08170   1.000
    C2578   C    0.66055   0.59313   0.07418   1.000
    C2579   C    0.66046   0.57362   0.07194   1.000
    C2580   C    0.67621   0.56328   0.07755   1.000
    C2581   C    0.69188   0.57232   0.08500   1.000
    H2582   H    0.76985   0.60084   0.14757   1.000
    H2583   H    0.74413   0.58397   0.13318   1.000
    H2584   H    0.73675   0.62905   0.09351   1.000
    H2585   H    0.76204   0.64616   0.10823   1.000
    H2586   H    0.72176   0.57973   0.10778   1.000
    H2587   H    0.70802   0.61740   0.09293   1.000
    H2588   H    0.67575   0.61721   0.08322   1.000
    H2589   H    0.64849   0.60145   0.07021   1.000
    H2590   H    0.67657   0.54825   0.07575   1.000
    H2591   H    0.70393   0.56388   0.08856   1.000
    C2592   C    0.25573   0.89003   0.86132   1.000
    C2593   C    0.24014   0.89895   0.86890   1.000
    C2594   C    0.23122   0.89162   0.88471   1.000
    C2595   C    0.23802   0.87490   0.89262   1.000
    C2596   C    0.25363   0.86595   0.88502   1.000
    C2597   C    0.26272   0.87342   0.86930   1.000
    C2598   C    0.21451   0.90142   0.89198   1.000
    C2599   C    0.20841   0.89966   0.90959   1.000
    C2600   C    0.19154   0.90935   0.91668   1.000
    C2601   C    0.18969   0.91205   0.93599   1.000
    C2602   C    0.17373   0.92063   0.94327   1.000
    C2603   C    0.15927   0.92661   0.93136   1.000
    C2604   C    0.16108   0.92388   0.91204   1.000
    C2605   C    0.17698   0.91525   0.90476   1.000
    H2606   H    0.26223   0.89628   0.84921   1.000
    H2607   H    0.23507   0.91171   0.86242   1.000
    H2608   H    0.23116   0.86843   0.90442   1.000
    H2609   H    0.25838   0.85307   0.89144   1.000
    H2610   H    0.20755   0.91106   0.88258   1.000
    H2611   H    0.21640   0.89144   0.91951   1.000
    H2612   H    0.20063   0.90751   0.94547   1.000
    H2613   H    0.17270   0.92262   0.95822   1.000
    H2614   H    0.14992   0.92792   0.90260   1.000
    H2615   H    0.17749   0.91279   0.88988   1.000
    C2616   C    0.26008   0.36196   0.38955   1.000
    C2617   C    0.24479   0.36983   0.39873   1.000
    C2618   C    0.23631   0.38619   0.39201   1.000
    C2619   C    0.24368   0.39474   0.37590   1.000
    C2620   C    0.25905   0.38689   0.36666   1.000
    C2621   C    0.26755   0.37034   0.37333   1.000
    C2622   C    0.22027   0.39406   0.40256   1.000
    C2623   C    0.20749   0.40562   0.39506   1.000
    C2624   C    0.19116   0.41303   0.40551   1.000
    C2625   C    0.17564   0.41946   0.39533   1.000
    C2626   C    0.16008   0.42689   0.40445   1.000
    C2627   C    0.15972   0.42826   0.42403   1.000
    C2628   C    0.17522   0.42180   0.43429   1.000
    C2629   C    0.19083   0.41435   0.42515   1.000
    H2630   H    0.26593   0.34930   0.39541   1.000
    H2631   H    0.23949   0.36300   0.41117   1.000
    H2632   H    0.23792   0.40768   0.37054   1.000
    H2633   H    0.26424   0.39400   0.35439   1.000
    H2634   H    0.21848   0.38921   0.41677   1.000
    H2635   H    0.20833   0.40912   0.38038   1.000
    H2636   H    0.17550   0.41866   0.38022   1.000
    H2637   H    0.14825   0.43149   0.39615   1.000
    H2638   H    0.17545   0.42293   0.44937   1.000
    H2639   H    0.20271   0.41011   0.43352   1.000
    C2640   C    0.75424   0.88943   0.35887   1.000
    C2641   C    0.73853   0.89829   0.36627   1.000
    C2642   C    0.73087   0.89238   0.38328   1.000
    C2643   C    0.73902   0.87699   0.39256   1.000
    C2644   C    0.75479   0.86812   0.38516   1.000
    C2645   C    0.76267   0.87430   0.36827   1.000
    C2646   C    0.71415   0.90229   0.39046   1.000
    C2647   C    0.70888   0.90201   0.40842   1.000
    C2648   C    0.69225   0.91213   0.41558   1.000
    C2649   C    0.69096   0.91551   0.43484   1.000
    C2650   C    0.67530   0.92446   0.44230   1.000
    C2651   C    0.66056   0.93023   0.43064   1.000
    C2652   C    0.66182   0.92695   0.41136   1.000
    C2653   C    0.67742   0.91789   0.40390   1.000
    H2654   H    0.75964   0.89450   0.34571   1.000
    H2655   H    0.73239   0.90994   0.35870   1.000
    H2656   H    0.73318   0.87153   0.40537   1.000
    H2657   H    0.76074   0.85643   0.39275   1.000
    H2658   H    0.70654   0.91087   0.38057   1.000
    H2659   H    0.71747   0.89478   0.41860   1.000
    H2660   H    0.70210   0.91115   0.44418   1.000
    H2661   H    0.67467   0.92686   0.45722   1.000
    H2662   H    0.65045   0.93086   0.40212   1.000
    H2663   H    0.67745   0.91502   0.38910   1.000
    C2664   C    0.75716   0.39172   0.86132   1.000
    C2665   C    0.74194   0.40087   0.86940   1.000
    C2666   C    0.73413   0.39430   0.88610   1.000
    C2667   C    0.74216   0.37855   0.89483   1.000
    C2668   C    0.75741   0.36939   0.88676   1.000
    C2669   C    0.76509   0.37582   0.86986   1.000
    C2670   C    0.71812   0.40462   0.89424   1.000
    C2671   C    0.70580   0.39679   0.90597   1.000
    C2672   C    0.68954   0.40692   0.91384   1.000
    C2673   C    0.67428   0.39647   0.92028   1.000
    C2674   C    0.65876   0.40534   0.92807   1.000
    C2675   C    0.65822   0.42492   0.92976   1.000
    C2676   C    0.67353   0.43543   0.92344   1.000
    C2677   C    0.68909   0.42654   0.91564   1.000
    H2678   H    0.76258   0.39718   0.84833   1.000
    H2679   H    0.73614   0.41307   0.86247   1.000
    H2680   H    0.73698   0.37341   0.90806   1.000
    H2681   H    0.76320   0.35736   0.89391   1.000
    H2682   H    0.71594   0.41884   0.88951   1.000
    H2683   H    0.70698   0.38206   0.90929   1.000
    H2684   H    0.67429   0.38136   0.91914   1.000
    H2685   H    0.64706   0.39688   0.93257   1.000
    H2686   H    0.67360   0.45050   0.92485   1.000
    H2687   H    0.70082   0.43507   0.91143   1.000
    C2688   C    0.73967   0.89254   0.13557   1.000
    C2689   C    0.75473   0.90188   0.12747   1.000
    C2690   C    0.76423   0.89418   0.11222   1.000
    C2691   C    0.75802   0.87698   0.10494   1.000
    C2692   C    0.74290   0.86759   0.11308   1.000
    C2693   C    0.73357   0.87523   0.12855   1.000
    C2694   C    0.78009   0.90486   0.10418   1.000
    C2695   C    0.79348   0.89721   0.09357   1.000
    C2696   C    0.80968   0.90779   0.08607   1.000
    C2697   C    0.82540   0.89769   0.08011   1.000
    C2698   C    0.84085   0.90690   0.07258   1.000
    C2699   C    0.84091   0.92647   0.07071   1.000
    C2700   C    0.82527   0.93667   0.07675   1.000
    C2701   C    0.80974   0.92744   0.08423   1.000
    H2702   H    0.73280   0.89910   0.14728   1.000
    H2703   H    0.75904   0.91518   0.13326   1.000
    H2704   H    0.76456   0.87078   0.09284   1.000
    H2705   H    0.73859   0.85436   0.10721   1.000
    H2706   H    0.78118   0.91940   0.10813   1.000
    H2707   H    0.79325   0.88232   0.09099   1.000
    H2708   H    0.82577   0.88258   0.08131   1.000
    H2709   H    0.85282   0.89869   0.06825   1.000
    H2710   H    0.82485   0.95174   0.07523   1.000
    H2711   H    0.79775   0.93578   0.08809   1.000
    C2712   C    0.73773   0.36577   0.60785   1.000
    C2713   C    0.75282   0.37373   0.59848   1.000
    C2714   C    0.76335   0.38801   0.60672   1.000
    C2715   C    0.75810   0.39451   0.62454   1.000
    C2716   C    0.74290   0.38650   0.63397   1.000
    C2717   C    0.73263   0.37191   0.62579   1.000
    C2718   C    0.77934   0.39575   0.59599   1.000
    C2719   C    0.79354   0.40527   0.60368   1.000
    C2720   C    0.80996   0.41221   0.59300   1.000
    C2721   C    0.82600   0.41742   0.60302   1.000
    C2722   C    0.84168   0.42443   0.59379   1.000
    C2723   C    0.84171   0.42648   0.57427   1.000
    C2724   C    0.82580   0.42111   0.56413   1.000
    C2725   C    0.81002   0.41418   0.57338   1.000
    H2726   H    0.73006   0.35483   0.60084   1.000
    H2727   H    0.75637   0.36857   0.58472   1.000
    H2728   H    0.76546   0.40588   0.63120   1.000
    H2729   H    0.73933   0.39166   0.64769   1.000
    H2730   H    0.77982   0.39237   0.58129   1.000
    H2731   H    0.79377   0.40735   0.61863   1.000
    H2732   H    0.82642   0.41609   0.61809   1.000
    H2733   H    0.85384   0.42827   0.60196   1.000
    H2734   H    0.82538   0.42280   0.54910   1.000
    H2735   H    0.79785   0.41088   0.56506   1.000
    C2736   C    0.24628   0.85794   0.61300   1.000
    C2737   C    0.26206   0.86514   0.60417   1.000
    C2738   C    0.26914   0.88271   0.60909   1.000
    C2739   C    0.26031   0.89279   0.62348   1.000
    C2740   C    0.24445   0.88557   0.63233   1.000
    C2741   C    0.23715   0.86811   0.62709   1.000
    C2742   C    0.28595   0.88960   0.59917   1.000
    C2743   C    0.29098   0.90764   0.59844   1.000
    C2744   C    0.30768   0.91448   0.58824   1.000
    C2745   C    0.30901   0.93368   0.58430   1.000
    C2746   C    0.32475   0.94091   0.57533   1.000
    C2747   C    0.33950   0.92907   0.57007   1.000
    C2748   C    0.33816   0.90985   0.57381   1.000
    C2749   C    0.32251   0.90262   0.58292   1.000
    H2750   H    0.24137   0.84433   0.60870   1.000
    H2751   H    0.26871   0.85696   0.59332   1.000
    H2752   H    0.26567   0.90610   0.62817   1.000
    H2753   H    0.23791   0.89376   0.64319   1.000
    H2754   H    0.29381   0.87933   0.59139   1.000
    H2755   H    0.28219   0.91808   0.60492   1.000
    H2756   H    0.29789   0.94316   0.58829   1.000
    H2757   H    0.32546   0.95580   0.57259   1.000
    H2758   H    0.34955   0.90050   0.57028   1.000
    H2759   H    0.32248   0.88786   0.58619   1.000
    C2760   C    0.24433   0.35964   0.11281   1.000
    C2761   C    0.26026   0.36711   0.10435   1.000
    C2762   C    0.26767   0.38429   0.11020   1.000
    C2763   C    0.25889   0.39369   0.12507   1.000
    C2764   C    0.24291   0.38620   0.13356   1.000
    C2765   C    0.23536   0.36909   0.12750   1.000
    C2766   C    0.28478   0.39141   0.10075   1.000
    C2767   C    0.29053   0.40929   0.10133   1.000
    C2768   C    0.30753   0.41639   0.09162   1.000
    C2769   C    0.30944   0.43577   0.08897   1.000
    C2770   C    0.32534   0.44319   0.08036   1.000
    C2771   C    0.33980   0.43139   0.07420   1.000
    C2772   C    0.33794   0.41199   0.07682   1.000
    C2773   C    0.32207   0.40456   0.08550   1.000
    H2774   H    0.23920   0.34636   0.10779   1.000
    H2775   H    0.26679   0.35942   0.09309   1.000
    H2776   H    0.26439   0.40668   0.13045   1.000
    H2777   H    0.23651   0.39388   0.14486   1.000
    H2778   H    0.29237   0.38150   0.09227   1.000
    H2779   H    0.28209   0.41953   0.10857   1.000
    H2780   H    0.29857   0.44525   0.09358   1.000
    H2781   H    0.32630   0.45818   0.07845   1.000
    H2782   H    0.34901   0.40257   0.07259   1.000
    H2783   H    0.32158   0.38962   0.08774   1.000
    C2784   C    0.74302   0.14068   0.88767   1.000
    C2785   C    0.75871   0.13308   0.89652   1.000
    C2786   C    0.76709   0.11666   0.88985   1.000
    C2787   C    0.75948   0.10807   0.87388   1.000
    C2788   C    0.74373   0.11571   0.86499   1.000
    C2789   C    0.73530   0.13214   0.87174   1.000
    C2790   C    0.78408   0.10957   0.89956   1.000
    C2791   C    0.79045   0.09194   0.89823   1.000
    C2792   C    0.80749   0.08506   0.90804   1.000
    C2793   C    0.80974   0.06572   0.91072   1.000
    C2794   C    0.82580   0.05857   0.91936   1.000
    C2795   C    0.84006   0.07061   0.92545   1.000
    C2796   C    0.83783   0.08997   0.92283   1.000
    C2797   C    0.82180   0.09713   0.91414   1.000
    H2798   H    0.73705   0.15331   0.89341   1.000
    H2799   H    0.76432   0.14008   0.90869   1.000
    H2800   H    0.76580   0.09571   0.86793   1.000
    H2801   H    0.73836   0.10878   0.85270   1.000
    H2802   H    0.79108   0.11921   0.90884   1.000
    H2803   H    0.78256   0.08181   0.89028   1.000
    H2804   H    0.79903   0.05609   0.90610   1.000
    H2805   H    0.82708   0.04359   0.92128   1.000
    H2806   H    0.84876   0.09956   0.92699   1.000
    H2807   H    0.82101   0.11205   0.91179   1.000
    C2808   C    0.73935   0.60831   0.36271   1.000
    C2809   C    0.75476   0.59899   0.37034   1.000
    C2810   C    0.76439   0.60642   0.38568   1.000
    C2811   C    0.75801   0.62333   0.39348   1.000
    C2812   C    0.74257   0.63268   0.38583   1.000
    C2813   C    0.73304   0.62532   0.37032   1.000
    C2814   C    0.78054   0.59580   0.39337   1.000
    C2815   C    0.79400   0.60354   0.40386   1.000
    C2816   C    0.81032   0.59309   0.41145   1.000
    C2817   C    0.82585   0.60335   0.41761   1.000
    C2818   C    0.84136   0.59431   0.42536   1.000
    C2819   C    0.84169   0.57475   0.42724   1.000
    C2820   C    0.82625   0.56439   0.42100   1.000
    C2821   C    0.81065   0.57345   0.41330   1.000
    H2822   H    0.73240   0.60202   0.35089   1.000
    H2823   H    0.75922   0.58591   0.36416   1.000
    H2824   H    0.76461   0.62927   0.40569   1.000
    H2825   H    0.73814   0.64565   0.39218   1.000
    H2826   H    0.78169   0.58126   0.38938   1.000
    H2827   H    0.79363   0.61844   0.40647   1.000
    H2828   H    0.82599   0.61846   0.41642   1.000
    H2829   H    0.85317   0.60265   0.42980   1.000
    H2830   H    0.82606   0.54932   0.42251   1.000
    H2831   H    0.79881   0.56500   0.40927   1.000
    C2832   C    0.23971   0.10839   0.35948   1.000
    C2833   C    0.25474   0.09880   0.36755   1.000
    C2834   C    0.26351   0.10561   0.38368   1.000
    C2835   C    0.25660   0.12214   0.39183   1.000
    C2836   C    0.24153   0.13175   0.38375   1.000
    C2837   C    0.23290   0.12504   0.36742   1.000
    C2838   C    0.27940   0.09481   0.39173   1.000
    C2839   C    0.29240   0.10232   0.40296   1.000
    C2840   C    0.30864   0.09180   0.41067   1.000
    C2841   C    0.32394   0.10202   0.41745   1.000
    C2842   C    0.33940   0.09291   0.42522   1.000
    C2843   C    0.33993   0.07329   0.42653   1.000
    C2844   C    0.32469   0.06299   0.41972   1.000
    C2845   C    0.30914   0.07212   0.41196   1.000
    H2846   H    0.23351   0.10264   0.34697   1.000
    H2847   H    0.25964   0.08603   0.36105   1.000
    H2848   H    0.26251   0.12758   0.40461   1.000
    H2849   H    0.23663   0.14438   0.39044   1.000
    H2850   H    0.28086   0.08044   0.38730   1.000
    H2851   H    0.29177   0.11712   0.40603   1.000
    H2852   H    0.32395   0.11716   0.41670   1.000
    H2853   H    0.35105   0.10124   0.43010   1.000
    H2854   H    0.32461   0.04788   0.42079   1.000
    H2855   H    0.29747   0.06369   0.40744   1.000
    C2856   C    0.24460   0.60980   0.86035   1.000
    C2857   C    0.26037   0.60103   0.86788   1.000
    C2858   C    0.26927   0.60835   0.88370   1.000
    C2859   C    0.26230   0.62493   0.89164   1.000
    C2860   C    0.24651   0.63372   0.88410   1.000
    C2861   C    0.23741   0.62623   0.86839   1.000
    C2862   C    0.28611   0.59867   0.89099   1.000
    C2863   C    0.29221   0.60034   0.90862   1.000
    C2864   C    0.30907   0.59063   0.91585   1.000
    C2865   C    0.31103   0.58816   0.93521   1.000
    C2866   C    0.32696   0.57955   0.94263   1.000
    C2867   C    0.34129   0.57328   0.93081   1.000
    C2868   C    0.33939   0.57577   0.91145   1.000
    C2869   C    0.32352   0.58445   0.90403   1.000
    H2870   H    0.23812   0.60356   0.84823   1.000
    H2871   H    0.26558   0.58841   0.86136   1.000
    H2872   H    0.26915   0.63142   0.90342   1.000
    H2873   H    0.24160   0.64645   0.89057   1.000
    H2874   H    0.29308   0.58908   0.88162   1.000
    H2875   H    0.28419   0.60851   0.91849   1.000
    H2876   H    0.30018   0.59289   0.94463   1.000
    H2877   H    0.32808   0.57776   0.95761   1.000
    H2878   H    0.35045   0.57149   0.90206   1.000
    H2879   H    0.32294   0.58668   0.88910   1.000
    C2880   C    0.10761   0.25900   0.13623   1.000
    C2881   C    0.09834   0.24377   0.12834   1.000
    C2882   C    0.10582   0.23443   0.11287   1.000
    C2883   C    0.12274   0.24093   0.10520   1.000
    C2884   C    0.13204   0.25620   0.11311   1.000
    C2885   C    0.12462   0.26543   0.12877   1.000
    C2886   C    0.09525   0.21842   0.10496   1.000
    C2887   C    0.10303   0.20510   0.09431   1.000
    C2888   C    0.09260   0.18884   0.08672   1.000
    C2889   C    0.10284   0.17320   0.08078   1.000
    C2890   C    0.09381   0.15771   0.07314   1.000
    C2891   C    0.07425   0.15751   0.07113   1.000
    C2892   C    0.06392   0.17310   0.07711   1.000
    C2893   C    0.07298   0.18867   0.08472   1.000
    H2894   H    0.10126   0.26571   0.14814   1.000
    H2895   H    0.08527   0.23920   0.13444   1.000
    H2896   H    0.12873   0.23454   0.09292   1.000
    H2897   H    0.14501   0.26074   0.10687   1.000
    H2898   H    0.08074   0.21719   0.10897   1.000
    H2899   H    0.11791   0.20549   0.09168   1.000
    H2900   H    0.11794   0.17293   0.08210   1.000
    H2901   H    0.10214   0.14579   0.06890   1.000
    H2902   H    0.04887   0.17343   0.07548   1.000
    H2903   H    0.06456   0.20061   0.08857   1.000
    C2904   C    0.14120   0.75320   0.61603   1.000
    C2905   C    0.13391   0.73735   0.60743   1.000
    C2906   C    0.11594   0.73095   0.61180   1.000
    C2907   C    0.10552   0.74057   0.62544   1.000
    C2908   C    0.11285   0.75653   0.63407   1.000
    C2909   C    0.13073   0.76312   0.62933   1.000
    C2910   C    0.10908   0.71401   0.60204   1.000
    C2911   C    0.09108   0.70883   0.60123   1.000
    C2912   C    0.08447   0.69204   0.59097   1.000
    C2913   C    0.06534   0.69056   0.58679   1.000
    C2914   C    0.05836   0.67482   0.57760   1.000
    C2915   C    0.07040   0.66022   0.57235   1.000
    C2916   C    0.08954   0.66168   0.57639   1.000
    C2917   C    0.09650   0.67732   0.58573   1.000
    H2918   H    0.15516   0.75751   0.61222   1.000
    H2919   H    0.14237   0.73011   0.59719   1.000
    H2920   H    0.09183   0.73582   0.62968   1.000
    H2921   H    0.10443   0.76375   0.64432   1.000
    H2922   H    0.11941   0.70609   0.59440   1.000
    H2923   H    0.08051   0.71755   0.60760   1.000
    H2924   H    0.05572   0.70159   0.59071   1.000
    H2925   H    0.04353   0.67403   0.57464   1.000
    H2926   H    0.09903   0.65040   0.57287   1.000
    H2927   H    0.11121   0.67742   0.58919   1.000
    C2928   C    0.64078   0.25301   0.61327   1.000
    C2929   C    0.63313   0.23747   0.60436   1.000
    C2930   C    0.61579   0.23026   0.60990   1.000
    C2931   C    0.60640   0.23872   0.62495   1.000
    C2932   C    0.61405   0.25433   0.63387   1.000
    C2933   C    0.63129   0.26175   0.62807   1.000
    C2934   C    0.60843   0.21364   0.59999   1.000
    C2935   C    0.59039   0.20851   0.60015   1.000
    C2936   C    0.58314   0.19185   0.59018   1.000
    C2937   C    0.56384   0.19061   0.58677   1.000
    C2938   C    0.55629   0.17492   0.57795   1.000
    C2939   C    0.56791   0.16013   0.57235   1.000
    C2940   C    0.58722   0.16133   0.57569   1.000
    C2941   C    0.59476   0.17694   0.58461   1.000
    H2942   H    0.65417   0.25805   0.60849   1.000
    H2943   H    0.64079   0.23110   0.59298   1.000
    H2944   H    0.59331   0.23326   0.63012   1.000
    H2945   H    0.60636   0.26053   0.64528   1.000
    H2946   H    0.61829   0.20592   0.59155   1.000
    H2947   H    0.58024   0.21718   0.60723   1.000
    H2948   H    0.55454   0.20180   0.59099   1.000
    H2949   H    0.54135   0.17435   0.57550   1.000
    H2950   H    0.59643   0.14992   0.57190   1.000
    H2951   H    0.60959   0.17691   0.58752   1.000
    C2952   C    0.60892   0.76070   0.13843   1.000
    C2953   C    0.59976   0.74541   0.13049   1.000
    C2954   C    0.60718   0.73633   0.11483   1.000
    C2955   C    0.62390   0.74314   0.10703   1.000
    C2956   C    0.63309   0.75846   0.11499   1.000
    C2957   C    0.62574   0.76744   0.13082   1.000
    C2958   C    0.59672   0.72027   0.10685   1.000
    C2959   C    0.60448   0.70728   0.09579   1.000
    C2960   C    0.59416   0.69100   0.08808   1.000
    C2961   C    0.60452   0.67565   0.08157   1.000
    C2962   C    0.59556   0.66013   0.07388   1.000
    C2963   C    0.57597   0.65961   0.07239   1.000
    C2964   C    0.56554   0.67493   0.07886   1.000
    C2965   C    0.57451   0.69052   0.08652   1.000
    H2966   H    0.60263   0.76721   0.15049   1.000
    H2967   H    0.58682   0.74060   0.13670   1.000
    H2968   H    0.62985   0.73697   0.09462   1.000
    H2969   H    0.64593   0.76322   0.10863   1.000
    H2970   H    0.58231   0.71875   0.11109   1.000
    H2971   H    0.61929   0.70793   0.09287   1.000
    H2972   H    0.61964   0.67562   0.08252   1.000
    H2973   H    0.60398   0.64843   0.06926   1.000
    H2974   H    0.55044   0.67502   0.07764   1.000
    H2975   H    0.56598   0.70224   0.09079   1.000
    C2976   C    0.85890   0.25625   0.88563   1.000
    C2977   C    0.86633   0.24033   0.89425   1.000
    C2978   C    0.88348   0.23281   0.88846   1.000
    C2979   C    0.89291   0.24141   0.87349   1.000
    C2980   C    0.88547   0.25739   0.86485   1.000
    C2981   C    0.86839   0.26507   0.87086   1.000
    C2982   C    0.89059   0.21578   0.89809   1.000
    C2983   C    0.90852   0.21016   0.89772   1.000
    C2984   C    0.91558   0.19321   0.90758   1.000
    C2985   C    0.93490   0.19147   0.91069   1.000
    C2986   C    0.94228   0.17559   0.91947   1.000
    C2987   C    0.93049   0.16103   0.92533   1.000
    C2988   C    0.91115   0.16273   0.92226   1.000
    C2989   C    0.90377   0.17856   0.91338   1.000
    H2990   H    0.84564   0.26149   0.89061   1.000
    H2991   H    0.85863   0.23390   0.90558   1.000
    H2992   H    0.90586   0.23576   0.86814   1.000
    H2993   H    0.89317   0.26365   0.85347   1.000
    H2994   H    0.88065   0.20817   0.90654   1.000
    H2995   H    0.91877   0.21865   0.89057   1.000
    H2996   H    0.94435   0.20244   0.90629   1.000
    H2997   H    0.95724   0.17470   0.92172   1.000
    H2998   H    0.90177   0.15154   0.92625   1.000
    H2999   H    0.88889   0.17892   0.91073   1.000
    C3000   C    0.85753   0.75610   0.38619   1.000
    C3001   C    0.86477   0.74026   0.39509   1.000
    C3002   C    0.88229   0.73301   0.39013   1.000
    C3003   C    0.89230   0.74181   0.37563   1.000
    C3004   C    0.88504   0.75773   0.36670   1.000
    C3005   C    0.86759   0.76515   0.37194   1.000
    C3006   C    0.88916   0.71607   0.40012   1.000
    C3007   C    0.90713   0.71060   0.40058   1.000
    C3008   C    0.91395   0.69381   0.41092   1.000
    C3009   C    0.93320   0.69216   0.41450   1.000
    C3010   C    0.94043   0.67640   0.42361   1.000
    C3011   C    0.92856   0.66185   0.42936   1.000
    C3012   C    0.90929   0.66351   0.42596   1.000
    C3013   C    0.90205   0.67923   0.41674   1.000
    H3014   H    0.84395   0.76109   0.39053   1.000
    H3015   H    0.85662   0.73368   0.40602   1.000
    H3016   H    0.90558   0.73638   0.37091   1.000
    H3017   H    0.89316   0.76418   0.35572   1.000
    H3018   H    0.87893   0.70841   0.40817   1.000
    H3019   H    0.91758   0.71911   0.39376   1.000
    H3020   H    0.94273   0.70308   0.41015   1.000
    H3021   H    0.95535   0.67554   0.42611   1.000
    H3022   H    0.89987   0.65233   0.42988   1.000
    H3023   H    0.88722   0.67952   0.41381   1.000
    C3024   C    0.39192   0.25845   0.36196   1.000
    C3025   C    0.40127   0.24332   0.37006   1.000
    C3026   C    0.39426   0.23470   0.38618   1.000
    C3027   C    0.37783   0.24183   0.39431   1.000
    C3028   C    0.36845   0.25697   0.38619   1.000
    C3029   C    0.37535   0.26547   0.36988   1.000
    C3030   C    0.40470   0.21869   0.39425   1.000
    C3031   C    0.39677   0.20575   0.40523   1.000
    C3032   C    0.40696   0.18942   0.41298   1.000
    C3033   C    0.39654   0.17391   0.41890   1.000
    C3034   C    0.40542   0.15829   0.42657   1.000
    C3035   C    0.42495   0.15788   0.42862   1.000
    C3036   C    0.43545   0.17336   0.42274   1.000
    C3037   C    0.42655   0.18906   0.41510   1.000
    H3038   H    0.39784   0.26461   0.34951   1.000
    H3039   H    0.41399   0.23823   0.36363   1.000
    H3040   H    0.37229   0.23601   0.40711   1.000
    H3041   H    0.35585   0.26200   0.39282   1.000
    H3042   H    0.41913   0.21705   0.39006   1.000
    H3043   H    0.38191   0.20646   0.40795   1.000
    H3044   H    0.38145   0.17384   0.41749   1.000
    H3045   H    0.39700   0.14644   0.43077   1.000
    H3046   H    0.45050   0.17348   0.42442   1.000
    H3047   H    0.43507   0.20094   0.41129   1.000
    C3048   C    0.35975   0.75647   0.88870   1.000
    C3049   C    0.36741   0.74068   0.89735   1.000
    C3050   C    0.38421   0.73288   0.89097   1.000
    C3051   C    0.39305   0.74103   0.87540   1.000
    C3052   C    0.38539   0.75686   0.86674   1.000
    C3053   C    0.36866   0.76484   0.87331   1.000
    C3054   C    0.39158   0.71599   0.90061   1.000
    C3055   C    0.40943   0.71024   0.89957   1.000
    C3056   C    0.41672   0.69339   0.90936   1.000
    C3057   C    0.43612   0.69158   0.91187   1.000
    C3058   C    0.44368   0.67575   0.92058   1.000
    C3059   C    0.43197   0.66136   0.92697   1.000
    C3060   C    0.41257   0.66311   0.92448   1.000
    C3061   C    0.40501   0.67887   0.91567   1.000
    H3062   H    0.34680   0.76198   0.89417   1.000
    H3063   H    0.36018   0.73459   0.90916   1.000
    H3064   H    0.40569   0.73512   0.86961   1.000
    H3065   H    0.39263   0.76274   0.85486   1.000
    H3066   H    0.38195   0.70861   0.90959   1.000
    H3067   H    0.41944   0.71855   0.89190   1.000
    H3068   H    0.44548   0.70246   0.90707   1.000
    H3069   H    0.45869   0.67477   0.92237   1.000
    H3070   H    0.40326   0.65202   0.92888   1.000
    H3071   H    0.39006   0.67929   0.91346   1.000
    C3072   C    0.14217   0.74400   0.88627   1.000
    C3073   C    0.13474   0.75964   0.89522   1.000
    C3074   C    0.11702   0.76657   0.89036   1.000
    C3075   C    0.10702   0.75768   0.87594   1.000
    C3076   C    0.11446   0.74196   0.86697   1.000
    C3077   C    0.13209   0.73484   0.87212   1.000
    C3078   C    0.10993   0.78331   0.90035   1.000
    C3079   C    0.09186   0.78842   0.90082   1.000
    C3080   C    0.08480   0.80510   0.91100   1.000
    C3081   C    0.06551   0.80659   0.91429   1.000
    C3082   C    0.05807   0.82229   0.92321   1.000
    C3083   C    0.06979   0.83687   0.92908   1.000
    C3084   C    0.08910   0.83540   0.92594   1.000
    C3085   C    0.09654   0.81978   0.91689   1.000
    H3086   H    0.15590   0.73923   0.89049   1.000
    H3087   H    0.14288   0.76633   0.90608   1.000
    H3088   H    0.09359   0.76288   0.87128   1.000
    H3089   H    0.10632   0.73539   0.85608   1.000
    H3090   H    0.12008   0.79111   0.90835   1.000
    H3091   H    0.08152   0.77975   0.89405   1.000
    H3092   H    0.05611   0.79559   0.90987   1.000
    H3093   H    0.04312   0.82306   0.92550   1.000
    H3094   H    0.09840   0.84664   0.92997   1.000
    H3095   H    0.11139   0.81964   0.91417   1.000
    C3096   C    0.10544   0.23471   0.36853   1.000
    C3097   C    0.09658   0.25029   0.37621   1.000
    C3098   C    0.10620   0.26236   0.38823   1.000
    C3099   C    0.12499   0.25828   0.39267   1.000
    C3100   C    0.13391   0.24265   0.38493   1.000
    C3101   C    0.12426   0.23067   0.37273   1.000
    C3102   C    0.09583   0.27859   0.39606   1.000
    C3103   C    0.10402   0.29345   0.40403   1.000
    C3104   C    0.09370   0.30983   0.41167   1.000
    C3105   C    0.10407   0.32563   0.41693   1.000
    C3106   C    0.09526   0.34127   0.42458   1.000
    C3107   C    0.07580   0.34154   0.42716   1.000
    C3108   C    0.06531   0.32589   0.42179   1.000
    C3109   C    0.07413   0.31013   0.41426   1.000
    H3110   H    0.09739   0.22592   0.35930   1.000
    H3111   H    0.08208   0.25295   0.37264   1.000
    H3112   H    0.13286   0.26683   0.40229   1.000
    H3113   H    0.14833   0.23998   0.38864   1.000
    H3114   H    0.08083   0.27838   0.39438   1.000
    H3115   H    0.11911   0.29414   0.40455   1.000
    H3116   H    0.11911   0.32588   0.41515   1.000
    H3117   H    0.10368   0.35324   0.42840   1.000
    H3118   H    0.05031   0.32567   0.42383   1.000
    H3119   H    0.06548   0.29826   0.41087   1.000
    C3120   C    0.60830   0.74012   0.36624   1.000
    C3121   C    0.59893   0.75510   0.37443   1.000
    C3122   C    0.60707   0.76506   0.38916   1.000
    C3123   C    0.62473   0.75937   0.39588   1.000
    C3124   C    0.63415   0.74432   0.38764   1.000
    C3125   C    0.62609   0.73459   0.37263   1.000
    C3126   C    0.59642   0.78095   0.39714   1.000
    C3127   C    0.60424   0.79475   0.40705   1.000
    C3128   C    0.59369   0.81111   0.41423   1.000
    C3129   C    0.60379   0.82705   0.41950   1.000
    C3130   C    0.59462   0.84272   0.42661   1.000
    C3131   C    0.57510   0.84280   0.42868   1.000
    C3132   C    0.56489   0.82696   0.42334   1.000
    C3133   C    0.57407   0.81119   0.41633   1.000
    H3134   H    0.60138   0.73286   0.35497   1.000
    H3135   H    0.58527   0.75901   0.36911   1.000
    H3136   H    0.63127   0.76626   0.40761   1.000
    H3137   H    0.64777   0.74041   0.39301   1.000
    H3138   H    0.58173   0.78174   0.39360   1.000
    H3139   H    0.61922   0.79476   0.40923   1.000
    H3140   H    0.61886   0.82740   0.41807   1.000
    H3141   H    0.60282   0.85484   0.43045   1.000
    H3142   H    0.54985   0.82661   0.42507   1.000
    H3143   H    0.56573   0.79906   0.41301   1.000
    C3144   C    0.60505   0.23597   0.86976   1.000
    C3145   C    0.59546   0.25060   0.87834   1.000
    C3146   C    0.60483   0.26300   0.89020   1.000
    C3147   C    0.62401   0.26018   0.89372   1.000
    C3148   C    0.63363   0.24547   0.88515   1.000
    C3149   C    0.62428   0.23326   0.87296   1.000
    C3150   C    0.59397   0.27830   0.89891   1.000
    C3151   C    0.60162   0.29459   0.90407   1.000
    C3152   C    0.59106   0.31042   0.91241   1.000
    C3153   C    0.60130   0.32578   0.91900   1.000
    C3154   C    0.59225   0.34107   0.92701   1.000
    C3155   C    0.57269   0.34141   0.92861   1.000
    C3156   C    0.56234   0.32623   0.92183   1.000
    C3157   C    0.57138   0.31087   0.91382   1.000
    H3158   H    0.59722   0.22677   0.86071   1.000
    H3159   H    0.58066   0.25235   0.87554   1.000
    H3160   H    0.63159   0.26909   0.90328   1.000
    H3161   H    0.64839   0.24378   0.88805   1.000
    H3162   H    0.57913   0.27604   0.90031   1.000
    H3163   H    0.61645   0.29668   0.90194   1.000
    H3164   H    0.61641   0.32596   0.91798   1.000
    H3165   H    0.60058   0.35276   0.93180   1.000
    H3166   H    0.54724   0.32614   0.92294   1.000
    H3167   H    0.56274   0.29962   0.90875   1.000
    C3168   C    0.89280   0.73791   0.13575   1.000
    C3169   C    0.90192   0.75316   0.12767   1.000
    C3170   C    0.89375   0.76306   0.11281   1.000
    C3171   C    0.87633   0.75706   0.10589   1.000
    C3172   C    0.86717   0.74180   0.11400   1.000
    C3173   C    0.87523   0.73207   0.12911   1.000
    C3174   C    0.90408   0.77918   0.10477   1.000
    C3175   C    0.89595   0.79280   0.09467   1.000
    C3176   C    0.90610   0.80918   0.08691   1.000
    C3177   C    0.89560   0.82469   0.08089   1.000
    C3178   C    0.90437   0.84032   0.07316   1.000
    C3179   C    0.92391   0.84081   0.07123   1.000
    C3180   C    0.93449   0.82536   0.07724   1.000
    C3181   C    0.92571   0.80964   0.08488   1.000
    H3182   H    0.89963   0.73080   0.14723   1.000
    H3183   H    0.91541   0.75732   0.13316   1.000
    H3184   H    0.86978   0.76384   0.09404   1.000
    H3185   H    0.85378   0.73768   0.10833   1.000
    H3186   H    0.91876   0.78017   0.10823   1.000
    H3187   H    0.88097   0.79256   0.09258   1.000
    H3188   H    0.88051   0.82475   0.08221   1.000
    H3189   H    0.89587   0.85213   0.06886   1.000
    H3190   H    0.94955   0.82529   0.07567   1.000
    H3191   H    0.93437   0.79785   0.08877   1.000
    C3192   C    0.85731   0.24674   0.61270   1.000
    C3193   C    0.86486   0.26229   0.60362   1.000
    C3194   C    0.88263   0.26902   0.60844   1.000
    C3195   C    0.89260   0.26000   0.62288   1.000
    C3196   C    0.88506   0.24439   0.63193   1.000
    C3197   C    0.86735   0.23754   0.62692   1.000
    C3198   C    0.88985   0.28574   0.59847   1.000
    C3199   C    0.90797   0.29061   0.59805   1.000
    C3200   C    0.91517   0.30739   0.58814   1.000
    C3201   C    0.93443   0.30858   0.58456   1.000
    C3202   C    0.94197   0.32433   0.57579   1.000
    C3203   C    0.93037   0.33927   0.57038   1.000
    C3204   C    0.91110   0.33814   0.57390   1.000
    C3205   C    0.90357   0.32246   0.58279   1.000
    H3206   H    0.84367   0.24187   0.60837   1.000
    H3207   H    0.85679   0.26904   0.59268   1.000
    H3208   H    0.90604   0.26507   0.62754   1.000
    H3209   H    0.89306   0.23788   0.64303   1.000
    H3210   H    0.87976   0.29380   0.59056   1.000
    H3211   H    0.91825   0.28164   0.60465   1.000
    H3212   H    0.94372   0.29728   0.58862   1.000
    H3213   H    0.95687   0.32483   0.57321   1.000
    H3214   H    0.90191   0.34965   0.57025   1.000
    H3215   H    0.88878   0.32255   0.58580   1.000
    C3216   C    0.39277   0.74092   0.63986   1.000
    C3217   C    0.40233   0.75601   0.63197   1.000
    C3218   C    0.39562   0.76475   0.61572   1.000
    C3219   C    0.37930   0.75775   0.60723   1.000
    C3220   C    0.36974   0.74265   0.61513   1.000
    C3221   C    0.37631   0.73408   0.63158   1.000
    C3222   C    0.40623   0.78072   0.60784   1.000
    C3223   C    0.39844   0.79380   0.59681   1.000
    C3224   C    0.40872   0.81002   0.58899   1.000
    C3225   C    0.39832   0.82537   0.58247   1.000
    C3226   C    0.40722   0.84080   0.57454   1.000
    C3227   C    0.42677   0.84121   0.57281   1.000
    C3228   C    0.43726   0.82590   0.57936   1.000
    C3229   C    0.42835   0.81039   0.58727   1.000
    H3230   H    0.39830   0.73477   0.65253   1.000
    H3231   H    0.41494   0.76100   0.63870   1.000
    H3232   H    0.37401   0.76361   0.59432   1.000
    H3233   H    0.35732   0.73763   0.60814   1.000
    H3234   H    0.42066   0.78214   0.61215   1.000
    H3235   H    0.38358   0.79321   0.59398   1.000
    H3236   H    0.38321   0.82547   0.58356   1.000
    H3237   H    0.39878   0.85252   0.56986   1.000
    H3238   H    0.45234   0.82576   0.57796   1.000
    H3239   H    0.43688   0.79865   0.59158   1.000
    C3240   C    0.35787   0.24642   0.11117   1.000
    C3241   C    0.36536   0.26225   0.10255   1.000
    C3242   C    0.38257   0.26958   0.10839   1.000
    C3243   C    0.39200   0.26092   0.12338   1.000
    C3244   C    0.38451   0.24505   0.13200   1.000
    C3245   C    0.36738   0.23754   0.12596   1.000
    C3246   C    0.38975   0.28656   0.09887   1.000
    C3247   C    0.40771   0.29193   0.09937   1.000
    C3248   C    0.41483   0.30899   0.08993   1.000
    C3249   C    0.43415   0.31063   0.08692   1.000
    C3250   C    0.44158   0.32667   0.07862   1.000
    C3251   C    0.42981   0.34144   0.07312   1.000
    C3252   C    0.41048   0.33985   0.07607   1.000
    C3253   C    0.40305   0.32388   0.08450   1.000
    H3254   H    0.34457   0.24129   0.10619   1.000
    H3255   H    0.35768   0.26875   0.09120   1.000
    H3256   H    0.40498   0.26644   0.12878   1.000
    H3257   H    0.39224   0.23874   0.14339   1.000
    H3258   H    0.37983   0.29437   0.09050   1.000
    H3259   H    0.41793   0.28321   0.10638   1.000
    H3260   H    0.44356   0.29945   0.09106   1.000
    H3261   H    0.45653   0.32753   0.07644   1.000
    H3262   H    0.40115   0.35123   0.07234   1.000
    H3263   H    0.38818   0.32359   0.08712   1.000
    C3264   C    0.10907   0.14156   0.74260   1.000
    C3265   C    0.10015   0.13403   0.75828   1.000
    C3266   C    0.10714   0.11792   0.76709   1.000
    C3267   C    0.12358   0.10972   0.76016   1.000
    C3268   C    0.13251   0.11718   0.74451   1.000
    C3269   C    0.12539   0.13319   0.73536   1.000
    C3270   C    0.09738   0.11052   0.78381   1.000
    C3271   C    0.09888   0.09269   0.78960   1.000
    C3272   C    0.08953   0.08521   0.80652   1.000
    C3273   C    0.08731   0.06577   0.80830   1.000
    C3274   C    0.07908   0.05805   0.82423   1.000
    C3275   C    0.07294   0.06962   0.83881   1.000
    C3276   C    0.07527   0.08907   0.83712   1.000
    C3277   C    0.08354   0.09679   0.82122   1.000
    H3278   H    0.10302   0.15390   0.73626   1.000
    H3279   H    0.08764   0.14079   0.76348   1.000
    H3280   H    0.12989   0.09774   0.76696   1.000
    H3281   H    0.14511   0.11028   0.73983   1.000
    H3282   H    0.08808   0.11999   0.79103   1.000
    H3283   H    0.10676   0.08282   0.78131   1.000
    H3284   H    0.09193   0.05651   0.79728   1.000
    H3285   H    0.07738   0.04302   0.82510   1.000
    H3286   H    0.07109   0.09831   0.84833   1.000
    H3287   H    0.08559   0.11176   0.82079   1.000
    C3288   C    0.13557   0.60888   0.24056   1.000
    C3289   C    0.12736   0.59978   0.25570   1.000
    C3290   C    0.11151   0.60722   0.26439   1.000
    C3291   C    0.10377   0.62395   0.25736   1.000
    C3292   C    0.11197   0.63310   0.24211   1.000
    C3293   C    0.12807   0.62574   0.23345   1.000
    C3294   C    0.10345   0.59678   0.28040   1.000
    C3295   C    0.09248   0.60455   0.29341   1.000
    C3296   C    0.08536   0.59420   0.30993   1.000
    C3297   C    0.07969   0.60449   0.32558   1.000
    C3298   C    0.07274   0.59545   0.34141   1.000
    C3299   C    0.07116   0.57586   0.34192   1.000
    C3300   C    0.07683   0.56549   0.32630   1.000
    C3301   C    0.08374   0.57455   0.31041   1.000
    H3302   H    0.14781   0.60242   0.23457   1.000
    H3303   H    0.13356   0.58687   0.26074   1.000
    H3304   H    0.09123   0.62990   0.26333   1.000
    H3305   H    0.10554   0.64590   0.23717   1.000
    H3306   H    0.10784   0.58238   0.28205   1.000
    H3307   H    0.08944   0.61936   0.29268   1.000
    H3308   H    0.08074   0.61960   0.32562   1.000
    H3309   H    0.06869   0.60380   0.35333   1.000
    H3310   H    0.07548   0.55040   0.32622   1.000
    H3311   H    0.08737   0.56609   0.29846   1.000
    C3312   C    0.64090   0.11052   0.24452   1.000
    C3313   C    0.63331   0.10176   0.26019   1.000
    C3314   C    0.61705   0.10869   0.26857   1.000
    C3315   C    0.60869   0.12493   0.26116   1.000
    C3316   C    0.61629   0.13376   0.24547   1.000
    C3317   C    0.63250   0.12666   0.23680   1.000
    C3318   C    0.60976   0.09894   0.28533   1.000
    C3319   C    0.59196   0.10012   0.29105   1.000
    C3320   C    0.58477   0.09021   0.30777   1.000
    C3321   C    0.56547   0.08700   0.30921   1.000
    C3322   C    0.55804   0.07816   0.32495   1.000
    C3323   C    0.56977   0.07242   0.33966   1.000
    C3324   C    0.58908   0.07563   0.33827   1.000
    C3325   C    0.59651   0.08452   0.32256   1.000
    H3326   H    0.65340   0.10445   0.23862   1.000
    H3327   H    0.64016   0.08939   0.26573   1.000
    H3328   H    0.59649   0.13110   0.26760   1.000
    H3329   H    0.60934   0.14619   0.24029   1.000
    H3330   H    0.61934   0.08970   0.29259   1.000
    H3331   H    0.58194   0.10795   0.28278   1.000
    H3332   H    0.55610   0.09134   0.29809   1.000
    H3333   H    0.54310   0.07580   0.32563   1.000
    H3334   H    0.59839   0.07176   0.34959   1.000
    H3335   H    0.61136   0.08731   0.32237   1.000
    C3336   C    0.61000   0.63943   0.74071   1.000
    C3337   C    0.60045   0.63141   0.75574   1.000
    C3338   C    0.60766   0.61563   0.76499   1.000
    C3339   C    0.62455   0.60781   0.75861   1.000
    C3340   C    0.63411   0.61584   0.74360   1.000
    C3341   C    0.62699   0.63177   0.73443   1.000
    C3342   C    0.59690   0.60749   0.78077   1.000
    C3343   C    0.60463   0.59657   0.79399   1.000
    C3344   C    0.59418   0.58843   0.80997   1.000
    C3345   C    0.60442   0.58174   0.82534   1.000
    C3346   C    0.59539   0.57358   0.84057   1.000
    C3347   C    0.57583   0.57180   0.84078   1.000
    C3348   C    0.56550   0.57846   0.82542   1.000
    C3349   C    0.57455   0.58659   0.81011   1.000
    H3350   H    0.60392   0.65159   0.73403   1.000
    H3351   H    0.58738   0.63763   0.76021   1.000
    H3352   H    0.63033   0.59529   0.76487   1.000
    H3353   H    0.64702   0.60935   0.73915   1.000
    H3354   H    0.58235   0.61145   0.78186   1.000
    H3355   H    0.61954   0.59404   0.79373   1.000
    H3356   H    0.61952   0.58290   0.82562   1.000
    H3357   H    0.60372   0.56883   0.85231   1.000
    H3358   H    0.55043   0.57704   0.82510   1.000
    H3359   H    0.56611   0.59103   0.79836   1.000
    C3360   C    0.86361   0.89182   0.73817   1.000
    C3361   C    0.87161   0.90118   0.75327   1.000
    C3362   C    0.88684   0.89346   0.76294   1.000
    C3363   C    0.89419   0.87621   0.75691   1.000
    C3364   C    0.88617   0.86681   0.74176   1.000
    C3365   C    0.87073   0.87447   0.73222   1.000
    C3366   C    0.89481   0.90410   0.77885   1.000
    C3367   C    0.90504   0.89624   0.79250   1.000
    C3368   C    0.91256   0.90671   0.80874   1.000
    C3369   C    0.91811   0.89652   0.82459   1.000
    C3370   C    0.92569   0.90557   0.84008   1.000
    C3371   C    0.92801   0.92508   0.84008   1.000
    C3372   C    0.92239   0.93538   0.82431   1.000
    C3373   C    0.91485   0.92630   0.80873   1.000
    H3374   H    0.85186   0.89836   0.73121   1.000
    H3375   H    0.86576   0.91451   0.75748   1.000
    H3376   H    0.90630   0.87002   0.76358   1.000
    H3377   H    0.89216   0.85358   0.73757   1.000
    H3378   H    0.89112   0.91874   0.77973   1.000
    H3379   H    0.90732   0.88128   0.79243   1.000
    H3380   H    0.91655   0.88145   0.82501   1.000
    H3381   H    0.92967   0.89729   0.85215   1.000
    H3382   H    0.92426   0.95040   0.82386   1.000
    H3383   H    0.91130   0.93468   0.79665   1.000
    C3384   C    0.86392   0.39162   0.24165   1.000
    C3385   C    0.87188   0.40110   0.25667   1.000
    C3386   C    0.88784   0.39410   0.26563   1.000
    C3387   C    0.89598   0.37748   0.25896   1.000
    C3388   C    0.88804   0.36794   0.24385   1.000
    C3389   C    0.87183   0.37483   0.23494   1.000
    C3390   C    0.89564   0.40482   0.28153   1.000
    C3391   C    0.90651   0.39721   0.29481   1.000
    C3392   C    0.91363   0.40772   0.31119   1.000
    C3393   C    0.91957   0.39752   0.32688   1.000
    C3394   C    0.92677   0.40665   0.34250   1.000
    C3395   C    0.92831   0.42624   0.34276   1.000
    C3396   C    0.92227   0.43654   0.32715   1.000
    C3397   C    0.91511   0.42738   0.31144   1.000
    H3398   H    0.85155   0.39771   0.23543   1.000
    H3399   H    0.86539   0.41394   0.26142   1.000
    H3400   H    0.90865   0.37190   0.26510   1.000
    H3401   H    0.89478   0.35523   0.23922   1.000
    H3402   H    0.89121   0.41923   0.28282   1.000
    H3403   H    0.90956   0.38239   0.29437   1.000
    H3404   H    0.91862   0.38240   0.32708   1.000
    H3405   H    0.93111   0.39837   0.35444   1.000
    H3406   H    0.92358   0.45163   0.32691   1.000
    H3407   H    0.91124   0.43578   0.29946   1.000
    C3408   C    0.36047   0.89265   0.24084   1.000
    C3409   C    0.36825   0.90197   0.25612   1.000
    C3410   C    0.38472   0.89542   0.26456   1.000
    C3411   C    0.39350   0.87949   0.25712   1.000
    C3412   C    0.38575   0.87014   0.24185   1.000
    C3413   C    0.36906   0.87652   0.23343   1.000
    C3414   C    0.39253   0.90586   0.28067   1.000
    C3415   C    0.40400   0.89810   0.29338   1.000
    C3416   C    0.41176   0.90826   0.30968   1.000
    C3417   C    0.41856   0.89775   0.32483   1.000
    C3418   C    0.42639   0.90658   0.34034   1.000
    C3419   C    0.42774   0.92617   0.34103   1.000
    C3420   C    0.42098   0.93675   0.32588   1.000
    C3421   C    0.41315   0.92791   0.31031   1.000
    H3422   H    0.34770   0.89827   0.23497   1.000
    H3423   H    0.36128   0.91431   0.26146   1.000
    H3424   H    0.40658   0.87434   0.26276   1.000
    H3425   H    0.39309   0.85799   0.23669   1.000
    H3426   H    0.38782   0.92012   0.28252   1.000
    H3427   H    0.40728   0.88335   0.29242   1.000
    H3428   H    0.41773   0.88263   0.32472   1.000
    H3429   H    0.43123   0.89805   0.35191   1.000
    H3430   H    0.42210   0.95185   0.32592   1.000
    H3431   H    0.40862   0.93652   0.29872   1.000
    C3432   C    0.39015   0.35926   0.74534   1.000
    C3433   C    0.39891   0.36675   0.76106   1.000
    C3434   C    0.39240   0.38340   0.76908   1.000
    C3435   C    0.37660   0.39222   0.76126   1.000
    C3436   C    0.36785   0.38474   0.74550   1.000
    C3437   C    0.37454   0.36818   0.73730   1.000
    C3438   C    0.40214   0.39066   0.78583   1.000
    C3439   C    0.40115   0.40853   0.79143   1.000
    C3440   C    0.41090   0.41571   0.80823   1.000
    C3441   C    0.41381   0.43505   0.80983   1.000
    C3442   C    0.42244   0.44248   0.82566   1.000
    C3443   C    0.42835   0.43069   0.84024   1.000
    C3444   C    0.42546   0.41135   0.83871   1.000
    C3445   C    0.41673   0.40392   0.82294   1.000
    H3446   H    0.39568   0.34641   0.73965   1.000
    H3447   H    0.41092   0.35954   0.76692   1.000
    H3448   H    0.37071   0.40473   0.76738   1.000
    H3449   H    0.35581   0.39198   0.73985   1.000
    H3450   H    0.41109   0.38095   0.79325   1.000
    H3451   H    0.39356   0.41862   0.78305   1.000
    H3452   H    0.40936   0.44447   0.79879   1.000
    H3453   H    0.42455   0.45745   0.82650   1.000
    H3454   H    0.42946   0.40200   0.84996   1.000
    H3455   H    0.41419   0.38903   0.82266   1.000
    C3456   C    0.10599   0.85847   0.25866   1.000
    C3457   C    0.09644   0.86600   0.24331   1.000
    C3458   C    0.10276   0.88240   0.23461   1.000
    C3459   C    0.11866   0.89139   0.24187   1.000
    C3460   C    0.12820   0.88389   0.25721   1.000
    C3461   C    0.12204   0.86730   0.26581   1.000
    C3462   C    0.09214   0.89001   0.21843   1.000
    C3463   C    0.09986   0.90117   0.20548   1.000
    C3464   C    0.08960   0.90902   0.18920   1.000
    C3465   C    0.10003   0.91573   0.17404   1.000
    C3466   C    0.09116   0.92380   0.15861   1.000
    C3467   C    0.07159   0.92550   0.15803   1.000
    C3468   C    0.06107   0.91875   0.17315   1.000
    C3469   C    0.06997   0.91068   0.18865   1.000
    H3470   H    0.10070   0.84575   0.26487   1.000
    H3471   H    0.08413   0.85888   0.23813   1.000
    H3472   H    0.12363   0.90442   0.23603   1.000
    H3473   H    0.14033   0.89128   0.26234   1.000
    H3474   H    0.07781   0.88549   0.21682   1.000
    H3475   H    0.11466   0.90419   0.20628   1.000
    H3476   H    0.11515   0.91470   0.17410   1.000
    H3477   H    0.09964   0.92860   0.14705   1.000
    H3478   H    0.04599   0.92011   0.17318   1.000
    H3479   H    0.06141   0.90621   0.20025   1.000
    C3480   C    0.14215   0.39014   0.75701   1.000
    C3481   C    0.13479   0.39895   0.74116   1.000
    C3482   C    0.11824   0.39251   0.73287   1.000
    C3483   C    0.10936   0.37674   0.74059   1.000
    C3484   C    0.11672   0.36793   0.75645   1.000
    C3485   C    0.13319   0.37453   0.76492   1.000
    C3486   C    0.11116   0.40218   0.71587   1.000
    C3487   C    0.09338   0.40117   0.70990   1.000
    C3488   C    0.08633   0.41072   0.69282   1.000
    C3489   C    0.06697   0.41333   0.69074   1.000
    C3490   C    0.05964   0.42172   0.67464   1.000
    C3491   C    0.07152   0.42764   0.66021   1.000
    C3492   C    0.09089   0.42502   0.66224   1.000
    C3493   C    0.09824   0.41657   0.67829   1.000
    H3494   H    0.15490   0.39565   0.76295   1.000
    H3495   H    0.14204   0.41093   0.73540   1.000
    H3496   H    0.09693   0.37089   0.73430   1.000
    H3497   H    0.10945   0.35588   0.76195   1.000
    H3498   H    0.12094   0.41108   0.70856   1.000
    H3499   H    0.08322   0.39364   0.71817   1.000
    H3500   H    0.05746   0.40887   0.70162   1.000
    H3501   H    0.04465   0.42363   0.67350   1.000
    H3502   H    0.10036   0.42906   0.65115   1.000
    H3503   H    0.11316   0.41426   0.67894   1.000
    C3504   C    0.60786   0.86402   0.76131   1.000
    C3505   C    0.59804   0.87217   0.74651   1.000
    C3506   C    0.60540   0.88757   0.73688   1.000
    C3507   C    0.62260   0.89508   0.74280   1.000
    C3508   C    0.63244   0.88693   0.75766   1.000
    C3509   C    0.62527   0.87119   0.76697   1.000
    C3510   C    0.59455   0.89546   0.72102   1.000
    C3511   C    0.60233   0.90538   0.70715   1.000
    C3512   C    0.59184   0.91276   0.69079   1.000
    C3513   C    0.60207   0.91862   0.67514   1.000
    C3514   C    0.59300   0.92607   0.65953   1.000
    C3515   C    0.57345   0.92789   0.65920   1.000
    C3516   C    0.56311   0.92193   0.67475   1.000
    C3517   C    0.57220   0.91456   0.69046   1.000
    H3518   H    0.60169   0.85214   0.76833   1.000
    H3519   H    0.58471   0.86626   0.74243   1.000
    H3520   H    0.62847   0.90735   0.73619   1.000
    H3521   H    0.64574   0.89289   0.76168   1.000
    H3522   H    0.57989   0.89190   0.72035   1.000
    H3523   H    0.61731   0.90751   0.70717   1.000
    H3524   H    0.61718   0.91743   0.67497   1.000
    H3525   H    0.60130   0.93035   0.64763   1.000
    H3526   H    0.54804   0.92341   0.67491   1.000
    H3527   H    0.56375   0.91075   0.70236   1.000
    C3528   C    0.60928   0.36254   0.26073   1.000
    C3529   C    0.59998   0.37071   0.24562   1.000
    C3530   C    0.60679   0.38705   0.23727   1.000
    C3531   C    0.62301   0.39536   0.24466   1.000
    C3532   C    0.63234   0.38723   0.25987   1.000
    C3533   C    0.62569   0.37060   0.26813   1.000
    C3534   C    0.59629   0.39510   0.22125   1.000
    C3535   C    0.60404   0.40625   0.20834   1.000
    C3536   C    0.59373   0.41365   0.19189   1.000
    C3537   C    0.60402   0.41935   0.17624   1.000
    C3538   C    0.59502   0.42671   0.16054   1.000
    C3539   C    0.57547   0.42872   0.16017   1.000
    C3540   C    0.56509   0.42300   0.17579   1.000
    C3541   C    0.57411   0.41563   0.19155   1.000
    H3542   H    0.60336   0.34991   0.26649   1.000
    H3543   H    0.58743   0.36410   0.24031   1.000
    H3544   H    0.62842   0.40828   0.23897   1.000
    H3545   H    0.64477   0.39409   0.26503   1.000
    H3546   H    0.58194   0.39064   0.21952   1.000
    H3547   H    0.61884   0.40929   0.20914   1.000
    H3548   H    0.61912   0.41802   0.17612   1.000
    H3549   H    0.60338   0.43075   0.14861   1.000
    H3550   H    0.55003   0.42465   0.17598   1.000
    H3551   H    0.56568   0.41196   0.20352   1.000
    C3552   C    0.89214   0.14055   0.25779   1.000
    C3553   C    0.90146   0.13300   0.24238   1.000
    C3554   C    0.89531   0.11632   0.23415   1.000
    C3555   C    0.87982   0.10709   0.24197   1.000
    C3556   C    0.87051   0.11461   0.25738   1.000
    C3557   C    0.87649   0.13148   0.26550   1.000
    C3558   C    0.90568   0.10873   0.21786   1.000
    C3559   C    0.89793   0.09721   0.20526   1.000
    C3560   C    0.90793   0.08956   0.18877   1.000
    C3561   C    0.89726   0.08262   0.17386   1.000
    C3562   C    0.90590   0.07477   0.15826   1.000
    C3563   C    0.92548   0.07349   0.15721   1.000
    C3564   C    0.93623   0.08046   0.17210   1.000
    C3565   C    0.92757   0.08834   0.18776   1.000
    H3566   H    0.89728   0.15350   0.26359   1.000
    H3567   H    0.91346   0.14032   0.23677   1.000
    H3568   H    0.87500   0.09386   0.23650   1.000
    H3569   H    0.85870   0.10703   0.26295   1.000
    H3570   H    0.91983   0.11362   0.21580   1.000
    H3571   H    0.88326   0.09376   0.20648   1.000
    H3572   H    0.88213   0.08332   0.17425   1.000
    H3573   H    0.89720   0.06983   0.14690   1.000
    H3574   H    0.95134   0.07944   0.17181   1.000
    H3575   H    0.93632   0.09301   0.19915   1.000
    C3576   C    0.85879   0.61093   0.75429   1.000
    C3577   C    0.86620   0.60208   0.73862   1.000
    C3578   C    0.88324   0.60791   0.73097   1.000
    C3579   C    0.89258   0.62317   0.73913   1.000
    C3580   C    0.88516   0.63205   0.75486   1.000
    C3581   C    0.86821   0.62597   0.76271   1.000
    C3582   C    0.89034   0.59801   0.71423   1.000
    C3583   C    0.90826   0.59827   0.70875   1.000
    C3584   C    0.91528   0.58816   0.69208   1.000
    C3585   C    0.93456   0.58477   0.69059   1.000
    C3586   C    0.94190   0.57582   0.67490   1.000
    C3587   C    0.93009   0.57009   0.66031   1.000
    C3588   C    0.91079   0.57338   0.66178   1.000
    C3589   C    0.90345   0.58242   0.67742   1.000
    H3590   H    0.84559   0.60596   0.75967   1.000
    H3591   H    0.85858   0.59053   0.73250   1.000
    H3592   H    0.90545   0.62853   0.73333   1.000
    H3593   H    0.89278   0.64363   0.76087   1.000
    H3594   H    0.88041   0.58943   0.70677   1.000
    H3595   H    0.91852   0.60551   0.71717   1.000
    H3596   H    0.94401   0.58911   0.70159   1.000
    H3597   H    0.95683   0.57342   0.67413   1.000
    H3598   H    0.90143   0.56950   0.65054   1.000
    H3599   H    0.88862   0.58531   0.67760   1.000
    C3600   C    0.38720   0.14010   0.75737   1.000
    C3601   C    0.39587   0.13258   0.74164   1.000
    C3602   C    0.38966   0.11571   0.73389   1.000
    C3603   C    0.37425   0.10664   0.74210   1.000
    C3604   C    0.36555   0.11419   0.75791   1.000
    C3605   C    0.37196   0.13100   0.76580   1.000
    C3606   C    0.39928   0.10862   0.71695   1.000
    C3607   C    0.39844   0.09084   0.71104   1.000
    C3608   C    0.40841   0.08393   0.69421   1.000
    C3609   C    0.41154   0.06463   0.69238   1.000
    C3610   C    0.42045   0.05744   0.67658   1.000
    C3611   C    0.42638   0.06941   0.66218   1.000
    C3612   C    0.42326   0.08872   0.66395   1.000
    C3613   C    0.41428   0.09591   0.67971   1.000
    H3614   H    0.39256   0.15312   0.76279   1.000
    H3615   H    0.40755   0.13999   0.73553   1.000
    H3616   H    0.36862   0.09391   0.73627   1.000
    H3617   H    0.35379   0.10682   0.76386   1.000
    H3618   H    0.40819   0.11842   0.70967   1.000
    H3619   H    0.39087   0.08062   0.71921   1.000
    H3620   H    0.40709   0.05505   0.70324   1.000
    H3621   H    0.42273   0.04249   0.67563   1.000
    H3622   H    0.42727   0.09823   0.65287   1.000
    H3623   H    0.41157   0.11078   0.68013   1.000
    C3624   C    0.35998   0.61382   0.25648   1.000
    C3625   C    0.36740   0.60527   0.24064   1.000
    C3626   C    0.38461   0.61100   0.23326   1.000
    C3627   C    0.39415   0.62584   0.24199   1.000
    C3628   C    0.38670   0.63442   0.25791   1.000
    C3629   C    0.36954   0.62848   0.26541   1.000
    C3630   C    0.39163   0.60146   0.21623   1.000
    C3631   C    0.40950   0.60182   0.21054   1.000
    C3632   C    0.41639   0.59197   0.19361   1.000
    C3633   C    0.43568   0.58871   0.19183   1.000
    C3634   C    0.44289   0.57994   0.17597   1.000
    C3635   C    0.43097   0.57423   0.16145   1.000
    C3636   C    0.41167   0.57743   0.16319   1.000
    C3637   C    0.40445   0.58630   0.17901   1.000
    H3638   H    0.34665   0.60890   0.26157   1.000
    H3639   H    0.35963   0.59403   0.23413   1.000
    H3640   H    0.40717   0.63111   0.23648   1.000
    H3641   H    0.39444   0.64571   0.26428   1.000
    H3642   H    0.38163   0.59305   0.20866   1.000
    H3643   H    0.41983   0.60893   0.21897   1.000
    H3644   H    0.44523   0.59299   0.20277   1.000
    H3645   H    0.45783   0.57759   0.17505   1.000
    H3646   H    0.40219   0.57356   0.15204   1.000
    H3647   H    0.38959   0.58906   0.17939   1.000
    C3648   C    0.10870   0.25930   0.86005   1.000
    C3649   C    0.09939   0.24382   0.86753   1.000
    C3650   C    0.10600   0.23497   0.88375   1.000
    C3651   C    0.12200   0.24219   0.89259   1.000
    C3652   C    0.13134   0.25764   0.88514   1.000
    C3653   C    0.12489   0.26649   0.86870   1.000
    C3654   C    0.09554   0.21870   0.89130   1.000
    C3655   C    0.10332   0.20574   0.90250   1.000
    C3656   C    0.09316   0.18935   0.91018   1.000
    C3657   C    0.10366   0.17415   0.91692   1.000
    C3658   C    0.09486   0.15859   0.92474   1.000
    C3659   C    0.07528   0.15788   0.92614   1.000
    C3660   C    0.06470   0.17306   0.91942   1.000
    C3661   C    0.07352   0.18869   0.91160   1.000
    H3662   H    0.10303   0.26549   0.84747   1.000
    H3663   H    0.08699   0.23867   0.86052   1.000
    H3664   H    0.12721   0.23623   0.90549   1.000
    H3665   H    0.14353   0.26261   0.89252   1.000
    H3666   H    0.08123   0.21701   0.88669   1.000
    H3667   H    0.11809   0.20658   0.90566   1.000
    H3668   H    0.11879   0.17429   0.91608   1.000
    H3669   H    0.10340   0.14700   0.92953   1.000
    H3670   H    0.04960   0.17301   0.92057   1.000
    H3671   H    0.06489   0.20030   0.90713   1.000
    C3672   C    0.14205   0.75667   0.39035   1.000
    C3673   C    0.13483   0.74094   0.39940   1.000
    C3674   C    0.11853   0.73227   0.39288   1.000
    C3675   C    0.10982   0.73941   0.37674   1.000
    C3676   C    0.11701   0.75515   0.36765   1.000
    C3677   C    0.13322   0.76415   0.37435   1.000
    C3678   C    0.11147   0.71554   0.40291   1.000
    C3679   C    0.09361   0.70988   0.40215   1.000
    C3680   C    0.08642   0.69314   0.41211   1.000
    C3681   C    0.06708   0.69161   0.41503   1.000
    C3682   C    0.05957   0.67582   0.42374   1.000
    C3683   C    0.07125   0.66115   0.42969   1.000
    C3684   C    0.09062   0.66265   0.42682   1.000
    C3685   C    0.09814   0.67841   0.41805   1.000
    H3686   H    0.15457   0.76285   0.39610   1.000
    H3687   H    0.14196   0.73559   0.41168   1.000
    H3688   H    0.09762   0.73274   0.37083   1.000
    H3689   H    0.10976   0.76008   0.35533   1.000
    H3690   H    0.12126   0.70827   0.41190   1.000
    H3691   H    0.08349   0.71820   0.39452   1.000
    H3692   H    0.05771   0.70267   0.41051   1.000
    H3693   H    0.04460   0.67509   0.42586   1.000
    H3694   H    0.09992   0.65136   0.43087   1.000
    H3695   H    0.11303   0.67868   0.41554   1.000
    C3696   C    0.60762   0.25820   0.36148   1.000
    C3697   C    0.59806   0.24302   0.36916   1.000
    C3698   C    0.60434   0.23449   0.38565   1.000
    C3699   C    0.62025   0.24178   0.39461   1.000
    C3700   C    0.62983   0.25701   0.38698   1.000
    C3701   C    0.62373   0.26547   0.37022   1.000
    C3702   C    0.59364   0.21845   0.39325   1.000
    C3703   C    0.60115   0.20550   0.40459   1.000
    C3704   C    0.59070   0.18920   0.41200   1.000
    C3705   C    0.60092   0.17374   0.41852   1.000
    C3706   C    0.59182   0.15827   0.42613   1.000
    C3707   C    0.57223   0.15795   0.42755   1.000
    C3708   C    0.56191   0.17335   0.42095   1.000
    C3709   C    0.57104   0.18889   0.41335   1.000
    H3710   H    0.60216   0.26412   0.34869   1.000
    H3711   H    0.58575   0.23780   0.36205   1.000
    H3712   H    0.62522   0.23600   0.40769   1.000
    H3713   H    0.64200   0.26205   0.39438   1.000
    H3714   H    0.57940   0.21682   0.38842   1.000
    H3715   H    0.61589   0.20623   0.40798   1.000
    H3716   H    0.61605   0.17360   0.41770   1.000
    H3717   H    0.60012   0.14648   0.43086   1.000
    H3718   H    0.54681   0.17355   0.42212   1.000
    H3719   H    0.56264   0.20073   0.40902   1.000
    C3720   C    0.60773   0.75919   0.86109   1.000
    C3721   C    0.59800   0.74426   0.86907   1.000
    C3722   C    0.60466   0.73553   0.88533   1.000
    C3723   C    0.62098   0.74244   0.89385   1.000
    C3724   C    0.63072   0.75735   0.88587   1.000
    C3725   C    0.62430   0.76584   0.86933   1.000
    C3726   C    0.59410   0.71953   0.89315   1.000
    C3727   C    0.60209   0.70629   0.90380   1.000
    C3728   C    0.59202   0.68990   0.91147   1.000
    C3729   C    0.60262   0.67461   0.91783   1.000
    C3730   C    0.59391   0.65899   0.92557   1.000
    C3731   C    0.57436   0.65833   0.92720   1.000
    C3732   C    0.56367   0.67356   0.92083   1.000
    C3733   C    0.57240   0.68927   0.91314   1.000
    H3734   H    0.60216   0.76549   0.84851   1.000
    H3735   H    0.58532   0.73937   0.86238   1.000
    H3736   H    0.62621   0.73656   0.90678   1.000
    H3737   H    0.64334   0.76210   0.89271   1.000
    H3738   H    0.57961   0.71821   0.88901   1.000
    H3739   H    0.61699   0.70687   0.90642   1.000
    H3740   H    0.61773   0.67472   0.91677   1.000
    H3741   H    0.60247   0.64732   0.93014   1.000
    H3742   H    0.54859   0.67347   0.92216   1.000
    H3743   H    0.56371   0.70094   0.90896   1.000
    C3744   C    0.89147   0.25785   0.14033   1.000
    C3745   C    0.90060   0.24255   0.13230   1.000
    C3746   C    0.89400   0.23460   0.11566   1.000
    C3747   C    0.87813   0.24253   0.10704   1.000
    C3748   C    0.86899   0.25784   0.11507   1.000
    C3749   C    0.87552   0.26574   0.13183   1.000
    C3750   C    0.90442   0.21858   0.10748   1.000
    C3751   C    0.89683   0.20639   0.09542   1.000
    C3752   C    0.90709   0.19025   0.08728   1.000
    C3753   C    0.89671   0.17537   0.07989   1.000
    C3754   C    0.90565   0.16004   0.07173   1.000
    C3755   C    0.92526   0.15928   0.07059   1.000
    C3756   C    0.93571   0.17419   0.07792   1.000
    C3757   C    0.92675   0.18956   0.08610   1.000
    H3758   H    0.89703   0.26346   0.15319   1.000
    H3759   H    0.91287   0.23686   0.13917   1.000
    H3760   H    0.87289   0.23726   0.09390   1.000
    H3761   H    0.85689   0.26353   0.10795   1.000
    H3762   H    0.91859   0.21638   0.11233   1.000
    H3763   H    0.88216   0.20763   0.09189   1.000
    H3764   H    0.88157   0.17553   0.08052   1.000
    H3765   H    0.89718   0.14867   0.06648   1.000
    H3766   H    0.95082   0.17413   0.07701   1.000
    H3767   H    0.93530   0.20097   0.09107   1.000
    C3768   C    0.85905   0.75225   0.61669   1.000
    C3769   C    0.86648   0.73646   0.60810   1.000
    C3770   C    0.88457   0.73023   0.61240   1.000
    C3771   C    0.89499   0.73997   0.62597   1.000
    C3772   C    0.88752   0.75589   0.63461   1.000
    C3773   C    0.86952   0.76232   0.62990   1.000
    C3774   C    0.89159   0.71338   0.60258   1.000
    C3775   C    0.90964   0.70835   0.60167   1.000
    C3776   C    0.91635   0.69167   0.59128   1.000
    C3777   C    0.93544   0.69038   0.58692   1.000
    C3778   C    0.94249   0.67476   0.57756   1.000
    C3779   C    0.93057   0.66010   0.57233   1.000
    C3780   C    0.91147   0.66137   0.57655   1.000
    C3781   C    0.90443   0.67688   0.58607   1.000
    H3782   H    0.84500   0.75644   0.61294   1.000
    H3783   H    0.85803   0.72912   0.59791   1.000
    H3784   H    0.90878   0.73536   0.63015   1.000
    H3785   H    0.89592   0.76324   0.64479   1.000
    H3786   H    0.88129   0.70540   0.59496   1.000
    H3787   H    0.92015   0.71713   0.60803   1.000
    H3788   H    0.94497   0.70146   0.59083   1.000
    H3789   H    0.95729   0.67409   0.57447   1.000
    H3790   H    0.90208   0.65003   0.57305   1.000
    H3791   H    0.88978   0.67682   0.58968   1.000
    C3792   C    0.39078   0.25850   0.63741   1.000
    C3793   C    0.39975   0.24320   0.62934   1.000
    C3794   C    0.39263   0.23489   0.61315   1.000
    C3795   C    0.37637   0.24245   0.60496   1.000
    C3796   C    0.36733   0.25781   0.61304   1.000
    C3797   C    0.37436   0.26610   0.62946   1.000
    C3798   C    0.40294   0.21881   0.60511   1.000
    C3799   C    0.39519   0.20621   0.59364   1.000
    C3800   C    0.40539   0.18970   0.58633   1.000
    C3801   C    0.39498   0.17430   0.58016   1.000
    C3802   C    0.40392   0.15851   0.57301   1.000
    C3803   C    0.42351   0.15779   0.57173   1.000
    C3804   C    0.43399   0.17319   0.57782   1.000
    C3805   C    0.42504   0.18905   0.58495   1.000
    H3806   H    0.39693   0.26419   0.64995   1.000
    H3807   H    0.41232   0.23776   0.63588   1.000
    H3808   H    0.37071   0.23682   0.59215   1.000
    H3809   H    0.35491   0.26314   0.60623   1.000
    H3810   H    0.41718   0.21675   0.60983   1.000
    H3811   H    0.38048   0.20731   0.59024   1.000
    H3812   H    0.37986   0.17442   0.58101   1.000
    H3813   H    0.39548   0.14675   0.56861   1.000
    H3814   H    0.44909   0.17313   0.57669   1.000
    H3815   H    0.43359   0.20083   0.58897   1.000
    C3816   C    0.39272   0.75948   0.14200   1.000
    C3817   C    0.40222   0.74416   0.13444   1.000
    C3818   C    0.39567   0.73538   0.11822   1.000
    C3819   C    0.37949   0.74247   0.10951   1.000
    C3820   C    0.36995   0.75774   0.11706   1.000
    C3821   C    0.37639   0.76658   0.13343   1.000
    C3822   C    0.40643   0.71940   0.11047   1.000
    C3823   C    0.39894   0.70660   0.09902   1.000
    C3824   C    0.40947   0.69065   0.09092   1.000
    C3825   C    0.39930   0.67558   0.08363   1.000
    C3826   C    0.40844   0.66050   0.07530   1.000
    C3827   C    0.42804   0.66017   0.07395   1.000
    C3828   C    0.43829   0.67521   0.08126   1.000
    C3829   C    0.42913   0.69036   0.08958   1.000
    H3830   H    0.39835   0.76564   0.15457   1.000
    H3831   H    0.41473   0.73909   0.14137   1.000
    H3832   H    0.37430   0.73659   0.09662   1.000
    H3833   H    0.35764   0.76264   0.10973   1.000
    H3834   H    0.42077   0.71785   0.11505   1.000
    H3835   H    0.38415   0.70728   0.09585   1.000
    H3836   H    0.38417   0.67544   0.08439   1.000
    H3837   H    0.40016   0.64898   0.07005   1.000
    H3838   H    0.45339   0.67543   0.08018   1.000
    H3839   H    0.43751   0.70191   0.09448   1.000
    C3840   C    0.88736   0.74342   0.85711   1.000
    C3841   C    0.89628   0.75913   0.86451   1.000
    C3842   C    0.89054   0.76680   0.88158   1.000
    C3843   C    0.87535   0.75855   0.89096   1.000
    C3844   C    0.86643   0.74281   0.88356   1.000
    C3845   C    0.87234   0.73499   0.86656   1.000
    C3846   C    0.90038   0.78366   0.88863   1.000
    C3847   C    0.89993   0.78933   0.90650   1.000
    C3848   C    0.90977   0.80622   0.91354   1.000
    C3849   C    0.91246   0.80810   0.93288   1.000
    C3850   C    0.92110   0.82399   0.94025   1.000
    C3851   C    0.92726   0.83841   0.92842   1.000
    C3852   C    0.92465   0.83657   0.90907   1.000
    C3853   C    0.91590   0.82073   0.90169   1.000
    H3854   H    0.89232   0.73802   0.84394   1.000
    H3855   H    0.90779   0.76527   0.85685   1.000
    H3856   H    0.87003   0.76432   0.90384   1.000
    H3857   H    0.85485   0.73687   0.89123   1.000
    H3858   H    0.90896   0.79113   0.87870   1.000
    H3859   H    0.89263   0.78094   0.91673   1.000
    H3860   H    0.90781   0.79724   0.94236   1.000
    H3861   H    0.92301   0.82498   0.95522   1.000
    H3862   H    0.92888   0.84765   0.89965   1.000
    H3863   H    0.91361   0.82027   0.88678   1.000
    C3864   C    0.86110   0.24112   0.39192   1.000
    C3865   C    0.86891   0.25641   0.40121   1.000
    C3866   C    0.88476   0.26547   0.39410   1.000
    C3867   C    0.89287   0.25864   0.37757   1.000
    C3868   C    0.88506   0.24334   0.36826   1.000
    C3869   C    0.86906   0.23436   0.37529   1.000
    C3870   C    0.89265   0.28150   0.40465   1.000
    C3871   C    0.90377   0.29451   0.39698   1.000
    C3872   C    0.91166   0.31069   0.40732   1.000
    C3873   C    0.91860   0.32586   0.39698   1.000
    C3874   C    0.92657   0.34123   0.40593   1.000
    C3875   C    0.92791   0.34179   0.42550   1.000
    C3876   C    0.92097   0.32666   0.43593   1.000
    C3877   C    0.91303   0.31120   0.42695   1.000
    H3878   H    0.84886   0.23464   0.39791   1.000
    H3879   H    0.86245   0.26123   0.41400   1.000
    H3880   H    0.90545   0.26476   0.37189   1.000
    H3881   H    0.89174   0.23854   0.35561   1.000
    H3882   H    0.88834   0.28295   0.41904   1.000
    H3883   H    0.90672   0.29389   0.38218   1.000
    H3884   H    0.91779   0.32586   0.38187   1.000
    H3885   H    0.93155   0.35280   0.39752   1.000
    H3886   H    0.92205   0.32660   0.45101   1.000
    H3887   H    0.90840   0.29962   0.43549   1.000
    C3888   C    0.36414   0.74056   0.39080   1.000
    C3889   C    0.37225   0.75564   0.40004   1.000
    C3890   C    0.38826   0.76431   0.39296   1.000
    C3891   C    0.39626   0.75731   0.37644   1.000
    C3892   C    0.38816   0.74211   0.36713   1.000
    C3893   C    0.37191   0.73347   0.37415   1.000
    C3894   C    0.39622   0.78022   0.40358   1.000
    C3895   C    0.40736   0.79327   0.39608   1.000
    C3896   C    0.41444   0.80966   0.40662   1.000
    C3897   C    0.42035   0.82540   0.39653   1.000
    C3898   C    0.42738   0.84107   0.40574   1.000
    C3899   C    0.42881   0.84133   0.42533   1.000
    C3900   C    0.42282   0.82565   0.43551   1.000
    C3901   C    0.41583   0.80991   0.42628   1.000
    H3902   H    0.35176   0.73460   0.39700   1.000
    H3903   H    0.36584   0.76064   0.41279   1.000
    H3904   H    0.40893   0.76327   0.37077   1.000
    H3905   H    0.39478   0.73719   0.35450   1.000
    H3906   H    0.39163   0.78176   0.41788   1.000
    H3907   H    0.41062   0.79265   0.38135   1.000
    H3908   H    0.41948   0.82561   0.38142   1.000
    H3909   H    0.43167   0.85305   0.39752   1.000
    H3910   H    0.42403   0.82538   0.45059   1.000
    H3911   H    0.41198   0.79789   0.43460   1.000
    C3912   C    0.38728   0.24683   0.86020   1.000
    C3913   C    0.39604   0.26263   0.86753   1.000
    C3914   C    0.39022   0.27030   0.88457   1.000
    C3915   C    0.37505   0.26200   0.89394   1.000
    C3916   C    0.36627   0.24616   0.88661   1.000
    C3917   C    0.37234   0.23829   0.86968   1.000
    C3918   C    0.39993   0.28723   0.89158   1.000
    C3919   C    0.39957   0.29281   0.90946   1.000
    C3920   C    0.40947   0.30966   0.91645   1.000
    C3921   C    0.41269   0.31132   0.93573   1.000
    C3922   C    0.42151   0.32713   0.94302   1.000
    C3923   C    0.42728   0.34171   0.93118   1.000
    C3924   C    0.42406   0.34012   0.91190   1.000
    C3925   C    0.41516   0.32435   0.90460   1.000
    H3926   H    0.39229   0.24143   0.84705   1.000
    H3927   H    0.40751   0.26885   0.85986   1.000
    H3928   H    0.36967   0.26780   0.90678   1.000
    H3929   H    0.35476   0.24011   0.89428   1.000
    H3930   H    0.40847   0.29475   0.88164   1.000
    H3931   H    0.39238   0.28436   0.91972   1.000
    H3932   H    0.40837   0.30031   0.94520   1.000
    H3933   H    0.42387   0.32796   0.95794   1.000
    H3934   H    0.42797   0.35133   0.90249   1.000
    H3935   H    0.41240   0.32406   0.88976   1.000
    C3936   C    0.14001   0.74204   0.11298   1.000
    C3937   C    0.13245   0.75786   0.10431   1.000
    C3938   C    0.11613   0.76625   0.11112   1.000
    C3939   C    0.10767   0.75866   0.12716   1.000
    C3940   C    0.11525   0.74280   0.13592   1.000
    C3941   C    0.13154   0.73415   0.12894   1.000
    C3942   C    0.10889   0.78315   0.10134   1.000
    C3943   C    0.09115   0.78919   0.10246   1.000
    C3944   C    0.08397   0.80584   0.09220   1.000
    C3945   C    0.06462   0.80756   0.08929   1.000
    C3946   C    0.05718   0.82317   0.08008   1.000
    C3947   C    0.06894   0.83751   0.07363   1.000
    C3948   C    0.08831   0.83585   0.07652   1.000
    C3949   C    0.09575   0.82026   0.08579   1.000
    H3950   H    0.15256   0.73619   0.10699   1.000
    H3951   H    0.13938   0.76350   0.09210   1.000
    H3952   H    0.09539   0.76504   0.13322   1.000
    H3953   H    0.10825   0.73747   0.14819   1.000
    H3954   H    0.11848   0.79021   0.09205   1.000
    H3955   H    0.08112   0.78118   0.11045   1.000
    H3956   H    0.05520   0.79675   0.09414   1.000
    H3957   H    0.04221   0.82402   0.07798   1.000
    H3958   H    0.09767   0.84688   0.07210   1.000
    H3959   H    0.11066   0.81989   0.08828   1.000
    C3960   C    0.13993   0.24002   0.60769   1.000
    C3961   C    0.13240   0.25537   0.59819   1.000
    C3962   C    0.11640   0.26448   0.60486   1.000
    C3963   C    0.10782   0.25763   0.62116   1.000
    C3964   C    0.11535   0.24227   0.63072   1.000
    C3965   C    0.13157   0.23318   0.62418   1.000
    C3966   C    0.10890   0.28065   0.59414   1.000
    C3967   C    0.09794   0.29386   0.60168   1.000
    C3968   C    0.09059   0.31029   0.59125   1.000
    C3969   C    0.08410   0.32566   0.60152   1.000
    C3970   C    0.07654   0.34126   0.59248   1.000
    C3971   C    0.07516   0.34183   0.57291   1.000
    C3972   C    0.08174   0.32654   0.56255   1.000
    C3973   C    0.08929   0.31086   0.57161   1.000
    H3974   H    0.15235   0.23365   0.60193   1.000
    H3975   H    0.13922   0.26025   0.58559   1.000
    H3976   H    0.09510   0.26383   0.62647   1.000
    H3977   H    0.10821   0.23755   0.64316   1.000
    H3978   H    0.11344   0.28208   0.57982   1.000
    H3979   H    0.09480   0.29323   0.61645   1.000
    H3980   H    0.08488   0.32562   0.61663   1.000
    H3981   H    0.07181   0.35295   0.60084   1.000
    H3982   H    0.08060   0.32652   0.54746   1.000
    H3983   H    0.09361   0.29913   0.56315   1.000
    C3984   C    0.63828   0.73866   0.60498   1.000
    C3985   C    0.63054   0.75410   0.59577   1.000
    C3986   C    0.61463   0.76308   0.60286   1.000
    C3987   C    0.60631   0.75597   0.61919   1.000
    C3988   C    0.61405   0.74051   0.62841   1.000
    C3989   C    0.63020   0.73169   0.62149   1.000
    C3990   C    0.60694   0.77944   0.59259   1.000
    C3991   C    0.59633   0.79260   0.60069   1.000
    C3992   C    0.58875   0.80922   0.59076   1.000
    C3993   C    0.58259   0.82443   0.60146   1.000
    C3994   C    0.57489   0.84022   0.59290   1.000
    C3995   C    0.57305   0.84115   0.57339   1.000
    C3996   C    0.57925   0.82600   0.56259   1.000
    C3997   C    0.58692   0.81013   0.57117   1.000
    H3998   H    0.65065   0.73230   0.59909   1.000
    H3999   H    0.63713   0.75916   0.58312   1.000
    H4000   H    0.59365   0.76204   0.62478   1.000
    H4001   H    0.60722   0.73548   0.64090   1.000
    H4002   H    0.61110   0.78108   0.57817   1.000
    H4003   H    0.59369   0.79175   0.61554   1.000
    H4004   H    0.58378   0.82411   0.61655   1.000
    H4005   H    0.57046   0.85180   0.60157   1.000
    H4006   H    0.57775   0.82627   0.54754   1.000
    H4007   H    0.59095   0.79853   0.56239   1.000
    C4008   C    0.61177   0.24313   0.14282   1.000
    C4009   C    0.60276   0.25899   0.13573   1.000
    C4010   C    0.60804   0.26673   0.11853   1.000
    C4011   C    0.62289   0.25839   0.10867   1.000
    C4012   C    0.63193   0.24248   0.11578   1.000
    C4013   C    0.62646   0.23459   0.13293   1.000
    C4014   C    0.59812   0.28378   0.11184   1.000
    C4015   C    0.59788   0.28948   0.09395   1.000
    C4016   C    0.58785   0.30649   0.08727   1.000
    C4017   C    0.58424   0.30837   0.06807   1.000
    C4018   C    0.57551   0.32440   0.06099   1.000
    C4019   C    0.57020   0.33901   0.07295   1.000
    C4020   C    0.57364   0.33714   0.09218   1.000
    C4021   C    0.58247   0.32113   0.09928   1.000
    H4022   H    0.60717   0.23771   0.15614   1.000
    H4023   H    0.59153   0.26521   0.14375   1.000
    H4024   H    0.62785   0.26422   0.09565   1.000
    H4025   H    0.64322   0.23644   0.10777   1.000
    H4026   H    0.58999   0.29132   0.12208   1.000
    H4027   H    0.60472   0.28104   0.08347   1.000
    H4028   H    0.58827   0.29740   0.05847   1.000
    H4029   H    0.57294   0.32540   0.04611   1.000
    H4030   H    0.57007   0.34834   0.10169   1.000
    H4031   H    0.58547   0.32064   0.11407   1.000
    C4032   C    0.25484   0.14182   0.88782   1.000
    C4033   C    0.23904   0.13423   0.89640   1.000
    C4034   C    0.23220   0.11662   0.89117   1.000
    C4035   C    0.24142   0.10688   0.87678   1.000
    C4036   C    0.25728   0.11448   0.86819   1.000
    C4037   C    0.26425   0.13202   0.87365   1.000
    C4038   C    0.21521   0.10938   0.90071   1.000
    C4039   C    0.20988   0.09136   0.90054   1.000
    C4040   C    0.19293   0.08417   0.91022   1.000
    C4041   C    0.19127   0.06479   0.91310   1.000
    C4042   C    0.17539   0.05727   0.92164   1.000
    C4043   C    0.16075   0.06896   0.92754   1.000
    C4044   C    0.16235   0.08834   0.92469   1.000
    C4045   C    0.17817   0.09587   0.91605   1.000
    H4046   H    0.25952   0.15545   0.89232   1.000
    H4047   H    0.23214   0.14217   0.90725   1.000
    H4048   H    0.23638   0.09354   0.87185   1.000
    H4049   H    0.26405   0.10651   0.85731   1.000
    H4050   H    0.20733   0.11936   0.90886   1.000
    H4051   H    0.21858   0.08110   0.89363   1.000
    H4052   H    0.20232   0.05541   0.90871   1.000
    H4053   H    0.17459   0.04228   0.92371   1.000
    H4054   H    0.15110   0.09765   0.92871   1.000
    H4055   H    0.17844   0.11079   0.91361   1.000
    C4056   C    0.25257   0.64330   0.38497   1.000
    C4057   C    0.23674   0.63607   0.39370   1.000
    C4058   C    0.23064   0.61786   0.38990   1.000
    C4059   C    0.24047   0.60714   0.37666   1.000
    C4060   C    0.25636   0.61439   0.36790   1.000
    C4061   C    0.26269   0.63249   0.37209   1.000
    C4062   C    0.21376   0.61094   0.39970   1.000
    C4063   C    0.20950   0.59277   0.40161   1.000
    C4064   C    0.19271   0.58574   0.41159   1.000
    C4065   C    0.19137   0.56645   0.41511   1.000
    C4066   C    0.17564   0.55899   0.42391   1.000
    C4067   C    0.16092   0.57071   0.42949   1.000
    C4068   C    0.16225   0.59001   0.42619   1.000
    C4069   C    0.17788   0.59746   0.41723   1.000
    H4070   H    0.25675   0.65743   0.38830   1.000
    H4071   H    0.22929   0.64475   0.40360   1.000
    H4072   H    0.23590   0.59328   0.37280   1.000
    H4073   H    0.26375   0.60571   0.35799   1.000
    H4074   H    0.20515   0.62144   0.40628   1.000
    H4075   H    0.21898   0.58234   0.39613   1.000
    H4076   H    0.20249   0.55706   0.41091   1.000
    H4077   H    0.17495   0.54405   0.42635   1.000
    H4078   H    0.15090   0.59928   0.43002   1.000
    H4079   H    0.17788   0.61231   0.41448   1.000
    C4080   C    0.75968   0.10688   0.36168   1.000
    C4081   C    0.74431   0.09776   0.36958   1.000
    C4082   C    0.73483   0.10549   0.38487   1.000
    C4083   C    0.74133   0.12248   0.39233   1.000
    C4084   C    0.75667   0.13161   0.38443   1.000
    C4085   C    0.76608   0.12396   0.36898   1.000
    C4086   C    0.71871   0.09516   0.39295   1.000
    C4087   C    0.70557   0.10322   0.40365   1.000
    C4088   C    0.68939   0.09312   0.41188   1.000
    C4089   C    0.67425   0.10371   0.41852   1.000
    C4090   C    0.65884   0.09500   0.42673   1.000
    C4091   C    0.65821   0.07545   0.42858   1.000
    C4092   C    0.67335   0.06479   0.42202   1.000
    C4093   C    0.68884   0.07351   0.41386   1.000
    H4094   H    0.76657   0.10039   0.34993   1.000
    H4095   H    0.73976   0.08460   0.36365   1.000
    H4096   H    0.73492   0.12868   0.40449   1.000
    H4097   H    0.76113   0.14465   0.39058   1.000
    H4098   H    0.71737   0.08058   0.38920   1.000
    H4099   H    0.70610   0.11814   0.40602   1.000
    H4100   H    0.67430   0.11881   0.41728   1.000
    H4101   H    0.64728   0.10359   0.43141   1.000
    H4102   H    0.67336   0.04972   0.42352   1.000
    H4103   H    0.70040   0.06480   0.40951   1.000
    C4104   C    0.76589   0.60495   0.87156   1.000
    C4105   C    0.75113   0.59553   0.88010   1.000
    C4106   C    0.73824   0.60521   0.89119   1.000
    C4107   C    0.74078   0.62451   0.89411   1.000
    C4108   C    0.75572   0.63394   0.88571   1.000
    C4109   C    0.76830   0.62427   0.87417   1.000
    C4110   C    0.72269   0.59458   0.89973   1.000
    C4111   C    0.70594   0.60219   0.90341   1.000
    C4112   C    0.68991   0.59174   0.91147   1.000
    C4113   C    0.67466   0.60207   0.91822   1.000
    C4114   C    0.65922   0.59307   0.92601   1.000
    C4115   C    0.65862   0.57345   0.92725   1.000
    C4116   C    0.67366   0.56303   0.92016   1.000
    C4117   C    0.68913   0.57204   0.91231   1.000
    H4118   H    0.77552   0.59699   0.86305   1.000
    H4119   H    0.74962   0.58063   0.87783   1.000
    H4120   H    0.73144   0.63232   0.90306   1.000
    H4121   H    0.75726   0.64881   0.88803   1.000
    H4122   H    0.72515   0.57989   0.90231   1.000
    H4123   H    0.70372   0.61687   0.90038   1.000
    H4124   H    0.67471   0.61721   0.91756   1.000
    H4125   H    0.64766   0.60151   0.93095   1.000
    H4126   H    0.67358   0.54790   0.92091   1.000
    H4127   H    0.70022   0.56340   0.90683   1.000
    C4128   C    0.25544   0.85698   0.11122   1.000
    C4129   C    0.23955   0.86409   0.10227   1.000
    C4130   C    0.23189   0.88137   0.10754   1.000
    C4131   C    0.24031   0.89125   0.12229   1.000
    C4132   C    0.25623   0.88416   0.13122   1.000
    C4133   C    0.26405   0.86695   0.12578   1.000
    C4134   C    0.21482   0.88816   0.09778   1.000
    C4135   C    0.20922   0.90610   0.09776   1.000
    C4136   C    0.19200   0.91294   0.08827   1.000
    C4137   C    0.19003   0.93223   0.08504   1.000
    C4138   C    0.17383   0.93944   0.07676   1.000
    C4139   C    0.15918   0.92749   0.07153   1.000
    C4140   C    0.16109   0.90819   0.07471   1.000
    C4141   C    0.17725   0.90097   0.08309   1.000
    H4142   H    0.26084   0.84360   0.10672   1.000
    H4143   H    0.23323   0.85606   0.09113   1.000
    H4144   H    0.23456   0.90430   0.12728   1.000
    H4145   H    0.26233   0.89226   0.14240   1.000
    H4146   H    0.20710   0.87796   0.08975   1.000
    H4147   H    0.21786   0.91655   0.10442   1.000
    H4148   H    0.20108   0.94179   0.08898   1.000
    H4149   H    0.17276   0.95437   0.07440   1.000
    H4150   H    0.14984   0.89871   0.07119   1.000
    H4151   H    0.17780   0.88612   0.08586   1.000
    C4152   C    0.25638   0.38635   0.64249   1.000
    C4153   C    0.24061   0.39521   0.63508   1.000
    C4154   C    0.23337   0.38993   0.61767   1.000
    C4155   C    0.24209   0.37522   0.60795   1.000
    C4156   C    0.25792   0.36633   0.61538   1.000
    C4157   C    0.26533   0.37184   0.63272   1.000
    C4158   C    0.21652   0.39983   0.61056   1.000
    C4159   C    0.21136   0.40014   0.59252   1.000
    C4160   C    0.19461   0.41028   0.58545   1.000
    C4161   C    0.19331   0.41408   0.56624   1.000
    C4162   C    0.17758   0.42307   0.55882   1.000
    C4163   C    0.16275   0.42846   0.57047   1.000
    C4164   C    0.16402   0.42476   0.58970   1.000
    C4165   C    0.17970   0.41566   0.59711   1.000
    H4166   H    0.26142   0.39094   0.65596   1.000
    H4167   H    0.23408   0.40636   0.64298   1.000
    H4168   H    0.23666   0.37028   0.59476   1.000
    H4169   H    0.26432   0.35518   0.60745   1.000
    H4170   H    0.20869   0.40791   0.62061   1.000
    H4171   H    0.22010   0.39337   0.58224   1.000
    H4172   H    0.20449   0.41002   0.55690   1.000
    H4173   H    0.17698   0.42581   0.54395   1.000
    H4174   H    0.15260   0.42837   0.59893   1.000
    H4175   H    0.17972   0.41248   0.61187   1.000
    C4176   C    0.75796   0.86192   0.60787   1.000
    C4177   C    0.74278   0.87001   0.59859   1.000
    C4178   C    0.73442   0.88634   0.60543   1.000
    C4179   C    0.74182   0.89470   0.62160   1.000
    C4180   C    0.75701   0.88661   0.63089   1.000
    C4181   C    0.76527   0.87009   0.62417   1.000
    C4182   C    0.71840   0.89444   0.59505   1.000
    C4183   C    0.70565   0.90562   0.60297   1.000
    C4184   C    0.68938   0.91348   0.59282   1.000
    C4185   C    0.67391   0.91946   0.60322   1.000
    C4186   C    0.65836   0.92726   0.59434   1.000
    C4187   C    0.65801   0.92937   0.57483   1.000
    C4188   C    0.67347   0.92343   0.56436   1.000
    C4189   C    0.68909   0.91566   0.57325   1.000
    H4190   H    0.76391   0.84929   0.60211   1.000
    H4191   H    0.73746   0.86339   0.58608   1.000
    H4192   H    0.73619   0.90765   0.62698   1.000
    H4193   H    0.76227   0.89344   0.64327   1.000
    H4194   H    0.71661   0.89012   0.58069   1.000
    H4195   H    0.70649   0.90845   0.61779   1.000
    H4196   H    0.67380   0.91800   0.61828   1.000
    H4197   H    0.64652   0.93149   0.60273   1.000
    H4198   H    0.67363   0.92516   0.54933   1.000
    H4199   H    0.70096   0.91180   0.56477   1.000
    C4200   C    0.76261   0.39190   0.13454   1.000
    C4201   C    0.74752   0.40119   0.12635   1.000
    C4202   C    0.73727   0.39286   0.11192   1.000
    C4203   C    0.74277   0.37506   0.10551   1.000
    C4204   C    0.75794   0.36571   0.11374   1.000
    C4205   C    0.76797   0.37398   0.12845   1.000
    C4206   C    0.72131   0.40348   0.10389   1.000
    C4207   C    0.70731   0.39558   0.09428   1.000
    C4208   C    0.69091   0.40614   0.08704   1.000
    C4209   C    0.67482   0.39608   0.08217   1.000
    C4210   C    0.65911   0.40526   0.07503   1.000
    C4211   C    0.65914   0.42475   0.07250   1.000
    C4212   C    0.67516   0.43492   0.07742   1.000
    C4213   C    0.69096   0.42572   0.08448   1.000
    H4214   H    0.77009   0.39897   0.14557   1.000
    H4215   H    0.74375   0.41495   0.13143   1.000
    H4216   H    0.73563   0.36836   0.09402   1.000
    H4217   H    0.76171   0.35200   0.10860   1.000
    H4218   H    0.72065   0.41823   0.10713   1.000
    H4219   H    0.70718   0.38058   0.09241   1.000
    H4220   H    0.67437   0.38104   0.08394   1.000
    H4221   H    0.64686   0.39709   0.07153   1.000
    H4222   H    0.67561   0.44992   0.07534   1.000
    H4223   H    0.70321   0.43402   0.08747   1.000
    C4224   C    0.74047   0.10859   0.13454   1.000
    C4225   C    0.75553   0.09945   0.12621   1.000
    C4226   C    0.76489   0.10746   0.11100   1.000
    C4227   C    0.75857   0.12483   0.10404   1.000
    C4228   C    0.74344   0.13402   0.11242   1.000
    C4229   C    0.73423   0.12604   0.12783   1.000
    C4230   C    0.78075   0.09692   0.10273   1.000
    C4231   C    0.79395   0.10466   0.09191   1.000
    C4232   C    0.81017   0.09412   0.08433   1.000
    C4233   C    0.82583   0.10424   0.07830   1.000
    C4234   C    0.84136   0.09505   0.07087   1.000
    C4235   C    0.84156   0.07547   0.06918   1.000
    C4236   C    0.82594   0.06527   0.07519   1.000
    C4237   C    0.81033   0.07448   0.08256   1.000
    H4238   H    0.73372   0.10175   0.14618   1.000
    H4239   H    0.75994   0.08603   0.13177   1.000
    H4240   H    0.76500   0.13128   0.09200   1.000
    H4241   H    0.73901   0.14737   0.10679   1.000
    H4242   H    0.78203   0.08237   0.10669   1.000
    H4243   H    0.79356   0.11955   0.08922   1.000
    H4244   H    0.82611   0.11935   0.07943   1.000
    H4245   H    0.85330   0.10328   0.06655   1.000
    H4246   H    0.82563   0.05020   0.07378   1.000
    H4247   H    0.79837   0.06612   0.08643   1.000
    C4248   C    0.75247   0.62084   0.64371   1.000
    C4249   C    0.76888   0.61324   0.63626   1.000
    C4250   C    0.77070   0.61070   0.61694   1.000
    C4251   C    0.75600   0.61627   0.60510   1.000
    C4252   C    0.73982   0.62432   0.61249   1.000
    C4253   C    0.73789   0.62660   0.63186   1.000
    C4254   C    0.78830   0.60304   0.60934   1.000
    C4255   C    0.78855   0.59132   0.59477   1.000
    C4256   C    0.80616   0.58389   0.58698   1.000
    C4257   C    0.80687   0.56534   0.58070   1.000
    C4258   C    0.82335   0.55808   0.57311   1.000
    C4259   C    0.83919   0.56947   0.57116   1.000
    C4260   C    0.83838   0.58815   0.57709   1.000
    C4261   C    0.82205   0.59527   0.58509   1.000
    H4262   H    0.75137   0.62265   0.65867   1.000
    H4263   H    0.78012   0.60919   0.64559   1.000
    H4264   H    0.75720   0.61484   0.59010   1.000
    H4265   H    0.72874   0.62861   0.60308   1.000
    H4266   H    0.80126   0.60651   0.61644   1.000
    H4267   H    0.77548   0.58628   0.58895   1.000
    H4268   H    0.79472   0.55641   0.58189   1.000
    H4269   H    0.82369   0.54366   0.56853   1.000
    H4270   H    0.85048   0.59714   0.57571   1.000
    H4271   H    0.82173   0.60976   0.58943   1.000
    C4272   C    0.24072   0.10662   0.64064   1.000
    C4273   C    0.25591   0.09708   0.63290   1.000
    C4274   C    0.26445   0.10361   0.61654   1.000
    C4275   C    0.25719   0.11971   0.60779   1.000
    C4276   C    0.24203   0.12926   0.61551   1.000
    C4277   C    0.23360   0.12288   0.63207   1.000
    C4278   C    0.28046   0.09299   0.60875   1.000
    C4279   C    0.29328   0.10071   0.59748   1.000
    C4280   C    0.30942   0.09041   0.58958   1.000
    C4281   C    0.32457   0.10080   0.58275   1.000
    C4282   C    0.33991   0.09187   0.57472   1.000
    C4283   C    0.34043   0.07229   0.57321   1.000
    C4284   C    0.32532   0.06182   0.58004   1.000
    C4285   C    0.30990   0.07077   0.58806   1.000
    H4286   H    0.23463   0.10113   0.65331   1.000
    H4287   H    0.26109   0.08459   0.63981   1.000
    H4288   H    0.26290   0.12486   0.59478   1.000
    H4289   H    0.23691   0.14157   0.60833   1.000
    H4290   H    0.28209   0.07862   0.61325   1.000
    H4291   H    0.29251   0.11554   0.59447   1.000
    H4292   H    0.32456   0.11593   0.58369   1.000
    H4293   H    0.35148   0.10029   0.56981   1.000
    H4294   H    0.32527   0.04672   0.57882   1.000
    H4295   H    0.29830   0.06224   0.59260   1.000
    C4296   C    0.24236   0.60830   0.13760   1.000
    C4297   C    0.25759   0.59924   0.12947   1.000
    C4298   C    0.26622   0.60665   0.11354   1.000
    C4299   C    0.25902   0.62323   0.10565   1.000
    C4300   C    0.24377   0.63232   0.11379   1.000
    C4301   C    0.23524   0.62500   0.12990   1.000
    C4302   C    0.28227   0.59640   0.10540   1.000
    C4303   C    0.29511   0.60448   0.09443   1.000
    C4304   C    0.31149   0.59442   0.08670   1.000
    C4305   C    0.32695   0.60494   0.08086   1.000
    C4306   C    0.34264   0.59616   0.07331   1.000
    C4307   C    0.34317   0.57663   0.07131   1.000
    C4308   C    0.32770   0.56604   0.07705   1.000
    C4309   C    0.31194   0.57484   0.08456   1.000
    H4310   H    0.23623   0.60208   0.14991   1.000
    H4311   H    0.26273   0.58640   0.13574   1.000
    H4312   H    0.26485   0.62910   0.09301   1.000
    H4313   H    0.23866   0.64502   0.10731   1.000
    H4314   H    0.28401   0.58193   0.10952   1.000
    H4315   H    0.29430   0.61936   0.09173   1.000
    H4316   H    0.32696   0.62003   0.08227   1.000
    H4317   H    0.35447   0.60466   0.06922   1.000
    H4318   H    0.32765   0.55099   0.07538   1.000
    H4319   H    0.30010   0.56624   0.08828   1.000
    C4320   C    0.74095   0.86209   0.89093   1.000
    C4321   C    0.75627   0.87001   0.90005   1.000
    C4322   C    0.76498   0.88601   0.89286   1.000
    C4323   C    0.75782   0.89416   0.87640   1.000
    C4324   C    0.74247   0.88623   0.86726   1.000
    C4325   C    0.73382   0.87009   0.87440   1.000
    C4326   C    0.78105   0.89400   0.90324   1.000
    C4327   C    0.79392   0.90512   0.89538   1.000
    C4328   C    0.81022   0.91284   0.90560   1.000
    C4329   C    0.82566   0.91896   0.89522   1.000
    C4330   C    0.84122   0.92665   0.90411   1.000
    C4331   C    0.84164   0.92854   0.92364   1.000
    C4332   C    0.82621   0.92245   0.93409   1.000
    C4333   C    0.81059   0.91478   0.92518   1.000
    H4334   H    0.73473   0.84974   0.89701   1.000
    H4335   H    0.76139   0.86352   0.91277   1.000
    H4336   H    0.76372   0.90684   0.87068   1.000
    H4337   H    0.73738   0.89291   0.85467   1.000
    H4338   H    0.78274   0.88969   0.91764   1.000
    H4339   H    0.79315   0.90802   0.88056   1.000
    H4340   H    0.82575   0.91769   0.88015   1.000
    H4341   H    0.85302   0.93097   0.89570   1.000
    H4342   H    0.82607   0.92400   0.94913   1.000
    H4343   H    0.79876   0.91081   0.93368   1.000
    C4344   C    0.74390   0.35769   0.38847   1.000
    C4345   C    0.75971   0.36513   0.39717   1.000
    C4346   C    0.76726   0.38224   0.39128   1.000
    C4347   C    0.75878   0.39162   0.37614   1.000
    C4348   C    0.74292   0.38418   0.36743   1.000
    C4349   C    0.73521   0.36713   0.37352   1.000
    C4350   C    0.78422   0.38936   0.40095   1.000
    C4351   C    0.78981   0.40727   0.40041   1.000
    C4352   C    0.80670   0.41436   0.41026   1.000
    C4353   C    0.80840   0.43370   0.41316   1.000
    C4354   C    0.82423   0.44110   0.42190   1.000
    C4355   C    0.83879   0.42931   0.42792   1.000
    C4356   C    0.83715   0.40995   0.42506   1.000
    C4357   C    0.82136   0.40254   0.41623   1.000
    H4358   H    0.73862   0.34446   0.39352   1.000
    H4359   H    0.76604   0.35747   0.40864   1.000
    H4360   H    0.76444   0.40455   0.37072   1.000
    H4361   H    0.73676   0.39185   0.35592   1.000
    H4362   H    0.79179   0.37944   0.40953   1.000
    H4363   H    0.78134   0.41751   0.39313   1.000
    H4364   H    0.79742   0.44315   0.40863   1.000
    H4365   H    0.82507   0.45607   0.42399   1.000
    H4366   H    0.84834   0.40057   0.42918   1.000
    H4367   H    0.82103   0.38765   0.41376   1.000
    C4368   C    0.24062   0.89221   0.35954   1.000
    C4369   C    0.25593   0.90161   0.36724   1.000
    C4370   C    0.26476   0.89482   0.38341   1.000
    C4371   C    0.25769   0.87859   0.39198   1.000
    C4372   C    0.24240   0.86920   0.38430   1.000
    C4373   C    0.23366   0.87584   0.36796   1.000
    C4374   C    0.28086   0.90532   0.39121   1.000
    C4375   C    0.29386   0.89743   0.40225   1.000
    C4376   C    0.31006   0.90761   0.41023   1.000
    C4377   C    0.32534   0.89713   0.41681   1.000
    C4378   C    0.34073   0.90595   0.42491   1.000
    C4379   C    0.34117   0.92550   0.42673   1.000
    C4380   C    0.32591   0.93606   0.42018   1.000
    C4381   C    0.31045   0.92722   0.41209   1.000
    H4382   H    0.23431   0.89788   0.34701   1.000
    H4383   H    0.26096   0.91419   0.36045   1.000
    H4384   H    0.26362   0.87324   0.40484   1.000
    H4385   H    0.23743   0.85680   0.39137   1.000
    H4386   H    0.28236   0.91975   0.38692   1.000
    H4387   H    0.29320   0.88256   0.40506   1.000
    H4388   H    0.32541   0.88203   0.41562   1.000
    H4389   H    0.35240   0.89745   0.42958   1.000
    H4390   H    0.32578   0.95113   0.42165   1.000
    H4391   H    0.29876   0.93581   0.40775   1.000
    C4392   C    0.24431   0.35835   0.89138   1.000
    C4393   C    0.26000   0.36572   0.90040   1.000
    C4394   C    0.26832   0.38230   0.89403   1.000
    C4395   C    0.26083   0.39115   0.87809   1.000
    C4396   C    0.24513   0.38378   0.86907   1.000
    C4397   C    0.23659   0.36732   0.87563   1.000
    C4398   C    0.28507   0.38949   0.90398   1.000
    C4399   C    0.29071   0.40738   0.90312   1.000
    C4400   C    0.30750   0.41472   0.91291   1.000
    C4401   C    0.30924   0.43416   0.91512   1.000
    C4402   C    0.32507   0.44182   0.92362   1.000
    C4403   C    0.33958   0.43022   0.93009   1.000
    C4404   C    0.33787   0.41076   0.92795   1.000
    C4405   C    0.32207   0.40308   0.91938   1.000
    H4406   H    0.23833   0.34558   0.89682   1.000
    H4407   H    0.26559   0.35848   0.91250   1.000
    H4408   H    0.26717   0.40358   0.87228   1.000
    H4409   H    0.23980   0.39107   0.85693   1.000
    H4410   H    0.29242   0.37973   0.91295   1.000
    H4411   H    0.28234   0.41744   0.89546   1.000
    H4412   H    0.29831   0.44348   0.91020   1.000
    H4413   H    0.32595   0.45686   0.92517   1.000
    H4414   H    0.34902   0.40149   0.93244   1.000
    H4415   H    0.32168   0.38810   0.91745   1.000
loop_
    _geom_bond_atom_site_label_1
    _geom_bond_atom_site_label_2
    _geom_bond_distance
    _geom_bond_site_symmetry_2
    _ccdc_geom_bond_type
    H2366  C2352     1.08064      .   S
    C2357  C2352     1.40719      .   S
    C2357  C2356     1.40640      .   S
    C2357  C276      1.48919      .   S
    C3413  C3408     1.41087      .   S
    C3413  C3412     1.41034      .   S
    C3413  C360      1.41350      .   S
    C3293  C3288     1.41141      .   S
    C3293  C3292     1.41048      .   S
    C3293  C465      1.41346      .   S
    H3302  C3288     1.07912      .   S
    C3389  C3384     1.41182      .   S
    C3389  C3388     1.40925      .   S
    C3389  C381      1.41245      .   S
    H3422  C3408     1.08067      .   S
    H3398  C3384     1.07980      .   S
    H2441  C2428     1.08191      .   S
    C2429  C2428     1.40670      .   S
    C2429  C2424     1.40592      .   S
    C2429  C213      1.48833      .   S
    H3425  C3412     1.08040      .   S
    C3317  C3312     1.41053      .   S
    C3317  C3316     1.41044      .   S
    C3317  C444      1.41255      .   S
    H2369  C2356     1.08130      .   S
    C2333  C2328     1.40632      .   S
    C2333  C2332     1.40573      .   S
    C2333  C297      1.48463      .   S
    H3305  C3292     1.08143      .   S
    C2453  C2452     1.40635      .   S
    C2453  C2448     1.40641      .   S
    C2453  C192      1.48582      .   S
    C2352  C2353     1.39615      .   S
    H3326  C3312     1.08025      .   S
    H2342  C2328     1.08065      .   S
    H3401  C3388     1.08093      .   S
    H2465  C2452     1.08167      .   S
    H2345  C2332     1.08112      .   S
    H3329  C3316     1.08147      .   S
    C3288  C3289     1.39419      .   S
    H2462  C2448     1.08065      .   S
    C3408  C3409     1.39790      .   S
    C2356  C2355     1.40088      .   S
    C3384  C3385     1.39415      .   S
    C3412  C3411     1.39752      .   S
    C3292  C3291     1.40168      .   S
    H2438  C2424     1.08117      .   S
    C2428  C2427     1.40320      .   S
    C3388  C3387     1.40064      .   S
    C3312  C3313     1.39502      .   S
    C2328  C2329     1.39621      .   S
    C2332  C2331     1.39796      .   S
    C3316  C3315     1.39869      .   S
    C2452  C2451     1.39874      .   S
    C2448  C2449     1.39435      .   S
    C2424  C2425     1.39501      .   S
    C2353  H2367     1.08351      .   S
    C2353  C2354     1.40131      .   S
    C3289  H3303     1.08361      .   S
    C3289  C3290     1.39905      .   S
    C3409  H3423     1.08343      .   S
    C3409  C3410     1.40167      .   S
    C3385  H3399     1.08368      .   S
    C3385  C3386     1.39901      .   S
    C2355  C2354     1.40877      .   S
    C2355  H2368     1.08108      .   S
    C3411  H3424     1.08149      .   S
    C3411  C3410     1.40603      .   S
    C3291  H3304     1.08120      .   S
    C3291  C3290     1.40806      .   S
    C3387  H3400     1.08125      .   S
    C3387  C3386     1.40721      .   S
    C2427  H2440     1.08067      .   S
    C2427  C2426     1.41069      .   S
    C2329  H2343     1.08376      .   S
    C2329  C2330     1.40233      .   S
    C3313  H3327     1.08378      .   S
    C3313  C3314     1.39999      .   S
    C2331  H2344     1.08094      .   S
    C2331  C2330     1.40753      .   S
    C3315  H3328     1.08153      .   S
    C3315  C3314     1.40672      .   S
    C2451  H2464     1.08168      .   S
    C2451  C2450     1.40785      .   S
    C2449  H2463     1.08417      .   S
    C2449  C2450     1.40156      .   S
    C2425  C2426     1.40197      .   S
    C2425  H2439     1.08304      .   S
    C2354  C2358     1.48693      .   S
    C3290  C3294     1.48443      .   S
    C3410  C3414     1.48461      .   S
    C3386  C3390     1.48298      .   S
    C2330  C2334     1.48267      .   S
    C3314  C3318     1.48242      .   S
    C2426  C2430     1.48712      .   S
    C2450  C2454     1.48251      .   S
    C2358  H2370     1.08096      .   S
    C2358  C2359     1.34158      .   S
    C27    C28       1.38625      .   S
    C27    C26       1.39568      .   S
    C27    C2285     1.41340      .   S
    C3294  H3306     1.08168      .   S
    C3294  C3295     1.34024      .   S
    C3414  H3426     1.08157      .   S
    C3414  C3415     1.34192      .   S
    C150   C149      1.38858      .   S
    C150   C151      1.38500      .   S
    C150   C2117     1.48290      .   S
    H152   C149      1.08159      .   S
    C3390  H3402     1.08140      .   S
    C3390  C3391     1.34032      .   S
    C87    C88       1.38368      .   S
    C87    C86       1.38881      .   S
    C87    C2189     1.48359      .   S
    H2443  C2431     1.08149      .   S
    C570   C571      1.38772      .   S
    C570   C569      1.38839      .   S
    C570   C3557     1.48991      .   S
    C68    C69       1.39458      .   S
    C68    C67       1.38646      .   S
    C68    C2213     1.41505      .   S
    C654   C655      1.38680      .   S
    C654   C653      1.38802      .   S
    C654   C3461     1.48790      .   S
    C507   C506      1.39034      .   S
    C507   C508      1.38484      .   S
    C507   C3629     1.48945      .   S
    H2347  C2335     1.08154      .   S
    H3331  C3319     1.08257      .   S
    H2467  C2455     1.08232      .   S
    C591   C590      1.38835      .   S
    C591   C592      1.39472      .   S
    C591   C3533     1.41357      .   S
    C2334  C2335     1.34211      .   S
    C2334  H2346     1.08136      .   S
    C3318  C3319     1.34067      .   S
    C3318  H3330     1.08186      .   S
    H30    C28       1.07829      .   S
    C2430  C2431     1.34250      .   S
    C2430  H2442     1.08052      .   S
    C2454  C2455     1.34152      .   S
    C2454  H2466     1.08138      .   S
    H657   C655      1.07949      .   S
    H573   C571      1.07988      .   S
    C149   N148      1.34697      .   S
    H29    C26       1.08059      .   S
    H90    C88       1.07980      .   S
    H71    C69       1.08074      .   S
    H509   C506      1.08077      .   S
    H89    C86       1.08002      .   S
    C28    N14       1.34066      .   S
    H593   C590      1.07973      .   S
    H70    C67       1.07770      .   S
    H510   C508      1.08020      .   S
    H572   C569      1.08004      .   S
    C26    N25       1.35121      .   S
    H594   C592      1.08020      .   S
    H656   C653      1.07980      .   S
    C655   N651      1.34489      .   S
    C2335  C2336     1.48322      .   S
    C2431  C2432     1.49048      .   S
    C571   N567      1.34663      .   S
    C88    N84       1.34283      .   S
    C3319  C3320     1.48299      .   S
    C69    N65       1.35063      .   S
    C86    N85       1.34666      .   S
    C2455  C2456     1.48443      .   S
    C506   N505      1.34952      .   S
    C67    N66       1.34177      .   S
    C569   N568      1.34796      .   S
    H2371  C2359     1.08223      .   S
    C508   N504      1.34290      .   S
    C590   N589      1.34245      .   S
    H3427  C3415     1.08218      .   S
    C2359  C2360     1.48702      .   S
    H3307  C3295     1.08150      .   S
    C653   N652      1.34684      .   S
    C592   N588      1.34879      .   S
    C3415  C3416     1.48392      .   S
    C3295  C3296     1.48507      .   S
    C151   H153      1.08097      .   S
    C151   N147      1.34339      .   S
    H3403  C3391     1.08182      .   S
    C3391  C3392     1.48459      .   S
    H2444  C2433     1.08310      .   S
    H2375  C2365     1.08034      .   S
    H3332  C3321     1.08382      .   S
    H3311  C3301     1.08110      .   S
    H2468  C2457     1.08307      .   S
    H3431  C3421     1.08055      .   S
    H2348  C2337     1.08390      .   S
    H3407  C3397     1.08091      .   S
    N148   N147      1.31270      .   S
    N14    N25       1.31279      .   S
    N84    N85       1.31229      .   S
    N567   N568      1.31414      .   S
    N651   N652      1.31387      .   S
    N65    N66       1.31243      .   S
    N589   N588      1.31235      .   S
    N505   N504      1.31416      .   S
    C2432  C2433     1.40452      .   S
    C2432  C2437     1.41047      .   S
    C2336  C2337     1.40375      .   S
    C2336  C2341     1.40916      .   S
    C3320  C3321     1.40371      .   S
    C3320  C3325     1.40859      .   S
    C2456  C2457     1.40369      .   S
    C2456  C2461     1.40900      .   S
    C2433  C2434     1.39817      .   S
    C2360  C2365     1.41064      .   S
    C2360  C2361     1.40327      .   S
    C3321  C3322     1.39719      .   S
    C2365  C2364     1.40091      .   S
    C3416  C3421     1.40942      .   S
    C3416  C3417     1.40331      .   S
    C2457  C2458     1.39707      .   S
    C2337  C2338     1.39758      .   S
    C3296  C3301     1.41019      .   S
    C3296  C3297     1.40250      .   S
    C3421  C3420     1.39969      .   S
    C3301  C3300     1.39931      .   S
    C3392  C3397     1.40993      .   S
    C3392  C3393     1.40223      .   S
    C3397  C3396     1.40000      .   S
    H2351  C2341     1.08028      .   S
    C2341  C2340     1.39623      .   S
    C2437  H2447     1.08047      .   S
    C2437  C2436     1.39981      .   S
    H3335  C3325     1.08115      .   S
    C3325  C3324     1.39707      .   S
    H2471  C2461     1.08058      .   S
    C2461  C2460     1.39778      .   S
    H2372  C2361     1.08416      .   S
    C2434  H2445     1.08304      .   S
    C2434  C2435     1.40493      .   S
    C2361  C2362     1.39557      .   S
    H3428  C3417     1.08278      .   S
    C3417  C3418     1.39595      .   S
    C3322  H3333     1.08326      .   S
    C3322  C3323     1.40490      .   S
    H2374  C2364     1.08298      .   S
    C2364  C2363     1.40415      .   S
    C2458  H2469     1.08336      .   S
    C2458  C2459     1.40411      .   S
    C3297  H3308     1.08304      .   S
    C3297  C3298     1.39619      .   S
    C2338  H2349     1.08253      .   S
    C2338  C2339     1.40353      .   S
    C3420  H3430     1.08270      .   S
    C3420  C3419     1.40500      .   S
    H3310  C3300     1.08339      .   S
    C3300  C3299     1.40380      .   S
    C3393  H3404     1.08331      .   S
    C3393  C3394     1.39486      .   S
    H3406  C3396     1.08319      .   S
    C3396  C3395     1.40355      .   S
    H160   C158      1.07984      .   S
    H670   C667      1.08035      .   S
    H44    C41       1.07928      .   S
    H586   C583      1.08011      .   S
    H601   C599      1.07990      .   S
    H78    C76       1.07849      .   S
    H97    C95       1.07960      .   S
    C2436  C2435     1.40332      .   S
    C2436  H2446     1.08323      .   S
    C3324  C3323     1.40415      .   S
    C3324  H3334     1.08280      .   S
    C2340  C2339     1.40358      .   S
    C2340  H2350     1.08296      .   S
    H103   C100      1.07945      .   S
    C2460  C2459     1.40318      .   S
    C2460  H2470     1.08320      .   S
    H23    C81       1.08068      .   S
    C2435  C1199     1.48586      .   S
    H523   C520      1.08021      .   S
    C3323  C1541     1.48268      .   S
    N154   C158      1.34438      .   S
    N154   N155      1.31375      .   S
    C2459  C1559     1.48172      .   S
    H38    C35       1.08039      .   S
    C2362  C2363     1.40589      .   S
    C2362  H2373     1.08288      .   S
    H517   C515      1.08020      .   S
    H607   C604      1.08072      .   S
    C2339  C1196     1.48148      .   S
    C3418  C3419     1.40509      .   S
    C3418  H3429     1.08303      .   S
    C2363  C1556     1.48571      .   S
    C3419  C1538     1.48446      .   S
    H580   C578      1.07982      .   S
    C3298  C3299     1.40572      .   S
    C3298  H3309     1.08265      .   S
    H664   C662      1.07981      .   S
    C3299  C1181     1.48453      .   S
    N666   C667      1.34655      .   S
    N666   N665      1.31889      .   S
    N40    C41       1.34408      .   S
    N40    N39       1.31725      .   S
    C3394  C3395     1.40529      .   S
    C3394  H3405     1.08297      .   S
    N582   C583      1.34793      .   S
    N582   N581      1.31886      .   S
    C3395  C1178     1.48237      .   S
    N72    C76       1.34392      .   S
    N72    N73       1.31205      .   S
    C158   C157      1.38734      .   S
    N595   C599      1.34355      .   S
    N595   N596      1.31162      .   S
    N80    C81       1.35051      .   S
    N80    N79       1.32051      .   S
    N91    C95       1.34469      .   S
    N91    N92       1.31468      .   S
    N99    C100      1.34196      .   S
    N99    N98       1.31921      .   S
    C667   C668      1.38629      .   S
    N31    C35       1.34975      .   S
    N31    N32       1.31394      .   S
    N519   C520      1.34875      .   S
    N519   N518      1.31718      .   S
    C41    C42       1.38356      .   S
    C583   C584      1.38733      .   S
    N511   C515      1.35106      .   S
    N511   N512      1.31308      .   S
    C76    C75       1.38461      .   S
    N603   C604      1.34856      .   S
    N603   N602      1.32018      .   S
    N574   C578      1.34760      .   S
    N574   N575      1.31346      .   S
    H2654  C2640     1.08111      .   S
    C599   C598      1.38885      .   S
    N658   C662      1.34676      .   S
    N658   N659      1.31244      .   S
    C95    C94       1.38562      .   S
    H166   C163      1.08055      .   S
    H2846  C2832     1.08137      .   S
    H4382  C4368     1.08088      .   S
    C100   C101      1.38174      .   S
    C81    C82       1.38965      .   S
    N162   C163      1.34275      .   S
    N162   N161      1.31835      .   S
    C520   C521      1.38577      .   S
    C35    C34       1.39410      .   S
    C604   C605      1.38817      .   S
    H3710  C3696     1.07974      .   S
    C515   C514      1.39575      .   S
    C578   C577      1.38889      .   S
    H3038  C3024     1.08084      .   S
    C662   C661      1.39142      .   S
    H4094  C4080     1.08125      .   S
    H2822  C2808     1.08033      .   S
    C163   C164      1.38500      .   S
    N155   C156      1.34711      .   S
    H2633  C2620     1.08065      .   S
    H3905  C3892     1.08112      .   S
    H3134  C3120     1.08052      .   S
    H3689  C3676     1.08015      .   S
    N665   C669      1.34562      .   S
    H3881  C3868     1.08144      .   S
    N73    C74       1.34768      .   S
    H3017  C3004     1.08128      .   S
    H4361  C4348     1.08109      .   S
    N161   C165      1.34865      .   S
    N581   C585      1.34592      .   S
    N39    C43       1.34755      .   S
    N79    C83       1.34370      .   S
    C1199  C1078     1.40370      .   S
    C1199  C1114     1.40715      .   S
    C1541  C1402     1.40372      .   S
    C1541  C1504     1.40607      .   S
    C1556  C1468     1.40689      .   S
    C1556  C1432     1.40391      .   S
    N92    C93       1.34712      .   S
    N596   C597      1.34673      .   S
    C1559  C1474     1.40260      .   S
    C1559  C1438     1.40441      .   S
    N32    C33       1.34270      .   S
    C1538  C1510     1.40547      .   S
    C1538  C1396     1.40476      .   S
    N518   C522      1.34424      .   S
    C1196  C1072     1.40342      .   S
    C1196  C1108     1.40332      .   S
    N98    C102      1.34975      .   S
    H4073  C4060     1.08200      .   S
    N602   C606      1.34569      .   S
    N659   C660      1.34476      .   S
    N512   C513      1.34064      .   S
    N575   C576      1.34580      .   S
    H1079  C1078     1.08394      .   S
    C1181  C1144     1.40556      .   S
    C1181  C1042     1.40219      .   S
    H1403  C1402     1.08364      .   S
    H2655  C2641     1.08398      .   S
    C157   C156      1.39107      .   S
    C157   C2837     1.48917      .   S
    C2640  C2641     1.39487      .   S
    C2640  C2645     1.40626      .   S
    H1115  C1114     1.08318      .   S
    C1178  C1150     1.40515      .   S
    C1178  C1036     1.40121      .   S
    H1469  C1468     1.08321      .   S
    H1505  C1504     1.08284      .   S
    H1433  C1432     1.08346      .   S
    H3110  C3096     1.07965      .   S
    H1511  C1510     1.08321      .   S
    H1073  C1072     1.08341      .   S
    H1475  C1474     1.08278      .   S
    C2832  C2837     1.40711      .   S
    C2832  C2833     1.39679      .   S
    H1439  C1438     1.08356      .   S
    C4368  C4369     1.39908      .   S
    C4368  C4373     1.40741      .   S
    H1145  C1144     1.08346      .   S
    H1397  C1396     1.08293      .   S
    C668   C669      1.38660      .   S
    C668   C4373     1.48826      .   S
    H1109  C1108     1.08366      .   S
    C75    C74       1.38718      .   S
    C75    C2645     1.48557      .   S
    H4383  C4369     1.08368      .   S
    C584   C585      1.38642      .   S
    C584   C4085     1.48902      .   S
    H1151  C1150     1.08332      .   S
    H2847  C2833     1.08383      .   S
    H1037  C1036     1.08291      .   S
    C42    C43       1.38708      .   S
    C42    C3029     1.48484      .   S
    H1043  C1042     1.08327      .   S
    C3696  C3697     1.39614      .   S
    C3696  C3701     1.41095      .   S
    C4080  C4085     1.40681      .   S
    C4080  C4081     1.39901      .   S
    C3024  C3029     1.40703      .   S
    C3024  C3025     1.39461      .   S
    H3711  C3697     1.08361      .   S
    C94    C93       1.38879      .   S
    C94    C2813     1.48753      .   S
    C598   C597      1.39276      .   S
    C598   C3701     1.41289      .   S
    C2808  C2813     1.40781      .   S
    C2808  C2809     1.39605      .   S
    C82    C83       1.38413      .   S
    C82    C3005     1.48944      .   S
    C521   C522      1.38201      .   S
    C521   C4061     1.48231      .   S
    H3039  C3025     1.08318      .   S
    C101   C102      1.38912      .   S
    C101   C3125     1.48445      .   S
    H4095  C4081     1.08376      .   S
    H2823  C2809     1.08339      .   S
    C34    C33       1.38795      .   S
    C34    C2621     1.41430      .   S
    C156   H159      1.08070      .   S
    C164   C165      1.39114      .   S
    C164   C3101     1.48863      .   S
    C605   C606      1.38622      .   S
    C605   C4349     1.48886      .   S
    C1078  C1077     1.40324      .   S
    C514   C513      1.38626      .   S
    C514   C3893     1.41370      .   S
    C1402  C1401     1.40378      .   S
    C1114  C1113     1.40818      .   S
    C1468  C1467     1.40924      .   S
    C661   C660      1.38967      .   S
    C661   C3677     1.41307      .   S
    C1432  C1431     1.40265      .   S
    C1510  C1509     1.40614      .   S
    C577   C576      1.38640      .   S
    C577   C3869     1.48956      .   S
    C1504  C1503     1.40530      .   S
    C1474  C1473     1.40309      .   S
    C1396  C1395     1.40396      .   S
    C1438  C1437     1.40551      .   S
    C1072  C1071     1.40500      .   S
    C3120  C3125     1.40659      .   S
    C3120  C3121     1.39359      .   S
    C2641  C2642     1.40116      .   S
    C1144  C1143     1.40821      .   S
    C165   H167      1.08059      .   S
    C669   H671      1.07944      .   S
    C1108  C1107     1.40392      .   S
    C2620  C2621     1.41059      .   S
    C2620  C2619     1.40127      .   S
    C3004  C3005     1.40706      .   S
    C3004  C3003     1.40196      .   S
    C74    H77       1.08062      .   S
    C1150  C1149     1.40815      .   S
    C3892  C3893     1.41026      .   S
    C3892  C3891     1.40228      .   S
    C585   H587      1.08014      .   S
    C4369  C4370     1.40260      .   S
    C1042  C1041     1.40225      .   S
    C1036  C1035     1.40162      .   S
    C2837  C2836     1.40712      .   S
    C4348  C4349     1.40750      .   S
    C4348  C4347     1.40004      .   S
    C2833  C2834     1.40218      .   S
    C3676  C3677     1.41101      .   S
    C3676  C3675     1.39793      .   S
    C43    H45       1.07991      .   S
    C4060  C4061     1.40493      .   S
    C4060  C4059     1.39909      .   S
    C4373  C4372     1.40618      .   S
    C83    H24       1.07928      .   S
    C3868  C3869     1.40674      .   S
    C3868  C3867     1.39942      .   S
    C2645  C2644     1.40591      .   S
    C3096  C3101     1.40762      .   S
    C3096  C3097     1.39518      .   S
    C93    H96       1.08106      .   S
    C4085  C4084     1.40753      .   S
    H3135  C3121     1.08358      .   S
    C522   H524      1.07969      .   S
    C3697  C3698     1.40006      .   S
    C597   H600      1.07999      .   S
    C33    H36       1.07952      .   S
    C4081  C4082     1.40319      .   S
    C102   H104      1.08066      .   S
    C3029  C3028     1.40591      .   S
    C606   H608      1.07967      .   S
    C3025  C3026     1.40120      .   S
    C3701  C3700     1.41024      .   S
    C660   H663      1.07981      .   S
    C2813  C2812     1.40596      .   S
    C2809  C2810     1.40177      .   S
    C513   H516      1.07929      .   S
    H2632  C2619     1.08089      .   S
    C576   H579      1.07965      .   S
    H4360  C4347     1.08134      .   S
    H3904  C3891     1.08158      .   S
    H3688  C3675     1.08132      .   S
    H3016  C3003     1.08048      .   S
    H3880  C3867     1.08104      .   S
    C3005  C3000     1.40675      .   S
    C4061  C4056     1.40581      .   S
    C3125  C3124     1.40534      .   S
    H3111  C3097     1.08376      .   S
    C3101  C3100     1.40626      .   S
    H4072  C4059     1.08064      .   S
    C2621  C2616     1.41190      .   S
    C4349  C4344     1.40667      .   S
    C3893  C3888     1.41153      .   S
    C3677  C3672     1.41038      .   S
    C3121  C3122     1.40077      .   S
    C3869  C3864     1.40743      .   S
    C3003  C3002     1.40992      .   S
    C2619  C2618     1.40793      .   S
    C4347  C4346     1.40851      .   S
    C3097  C3098     1.40119      .   S
    C3891  C3890     1.40796      .   S
    C4059  C4058     1.40897      .   S
    C3675  C3674     1.40582      .   S
    C3867  C3866     1.40750      .   S
    H2636  C2625     1.08371      .   S
    H2635  C2623     1.08170      .   S
    H2658  C2646     1.08087      .   S
    H3907  C3895     1.08176      .   S
    H3908  C3897     1.08372      .   S
    C1467  C1554     1.40630      .   S
    C1467  C1466     1.48437      .   S
    C1077  C1197     1.40502      .   S
    C1077  C1076     1.48062      .   S
    C1431  C1554     1.40506      .   S
    C1431  C1430     1.48185      .   S
    C1509  C1536     1.40745      .   S
    C1509  C1508     1.48278      .   S
    H3884  C3873     1.08343      .   S
    C1401  C1539     1.40443      .   S
    C1401  C1400     1.48044      .   S
    C1113  C1197     1.40571      .   S
    C1113  C1112     1.48426      .   S
    H3883  C3871     1.08207      .   S
    C1395  C1536     1.40466      .   S
    C1395  C1394     1.48200      .   S
    C1503  C1539     1.40522      .   S
    C1503  C1502     1.48187      .   S
    C1143  C1179     1.40617      .   S
    C1143  C1142     1.48317      .   S
    C1473  C1557     1.40443      .   S
    C1473  C1472     1.47990      .   S
    C1437  C1557     1.40591      .   S
    C1437  C1436     1.48151      .   S
    C2642  C2646     1.48226      .   S
    C2642  C2643     1.40819      .   S
    C1071  C1194     1.40606      .   S
    C1071  C1070     1.48172      .   S
    C4370  C4374     1.48488      .   S
    C4370  C4371     1.40658      .   S
    C1149  C1176     1.40975      .   S
    C1149  C1148     1.48456      .   S
    C1035  C1176     1.40576      .   S
    C1035  C1034     1.48199      .   S
    C1041  C1179     1.40337      .   S
    C1041  C1040     1.47883      .   S
    C2834  C2838     1.48674      .   S
    C2834  C2835     1.40856      .   S
    C2836  H2849     1.08141      .   S
    C2836  C2835     1.39997      .   S
    C1107  C1194     1.40542      .   S
    C1107  C1106     1.48134      .   S
    C4372  H4385     1.08080      .   S
    C4372  C4371     1.39705      .   S
    C4084  H4097     1.08073      .   S
    C4084  C4083     1.39766      .   S
    O1507  C1508     1.27115      .   S
    O1429  C1430     1.27033      .   S
    O1075  C1076     1.27145      .   S
    O1465  C1466     1.27051      .   S
    C4082  C4083     1.40790      .   S
    C4082  C4086     1.48780      .   S
    C3100  H3113     1.08081      .   S
    C3100  C3099     1.40169      .   S
    O1399  C1400     1.27176      .   S
    O1141  C1142     1.26928      .   S
    C4056  H4070     1.08130      .   S
    C4056  C4057     1.39410      .   S
    C2644  C2643     1.39865      .   S
    C2644  H2657     1.08150      .   S
    O1111  C1112     1.26997      .   S
    O1393  C1394     1.27065      .   S
    C3698  C3702     1.48288      .   S
    C3698  C3699     1.40693      .   S
    C2810  C2814     1.48475      .   S
    C2810  C2811     1.40864      .   S
    O1501  C1502     1.27100      .   S
    O1471  C1472     1.27017      .   S
    O1069  C1070     1.27096      .   S
    C2812  H2825     1.08107      .   S
    C2812  C2811     1.39931      .   S
    O1147  C1148     1.27173      .   S
    O1435  C1436     1.27063      .   S
    O1033  C1034     1.27193      .   S
    C3026  C3030     1.48049      .   S
    C3026  C3027     1.40763      .   S
    C3028  H3041     1.08079      .   S
    C3028  C3027     1.39677      .   S
    C3000  H3014     1.08049      .   S
    C3000  C3001     1.39583      .   S
    H4386  C4374     1.08118      .   S
    O1039  C1040     1.26942      .   S
    C3700  H3713     1.08107      .   S
    C3700  C3699     1.39823      .   S
    O1105  C1106     1.27138      .   S
    H2850  C2838     1.08100      .   S
    C3124  H3137     1.08226      .   S
    C3124  C3123     1.40067      .   S
    C3098  C3099     1.40988      .   S
    C3098  C3102     1.48743      .   S
    H3714  C3702     1.08148      .   S
    C4344  H4358     1.08084      .   S
    C4344  C4345     1.39683      .   S
    H2663  C2653     1.08009      .   S
    C3122  C3123     1.40927      .   S
    C3122  C3126     1.48289      .   S
    H4098  C4086     1.08158      .   S
    H2826  C2814     1.08186      .   S
    C1554  H1555     1.08299      .   S
    C2616  H2630     1.07963      .   S
    C2616  C2617     1.39532      .   S
    C4058  C4057     1.40122      .   S
    C4058  C4062     1.48289      .   S
    C1197  H1198     1.08279      .   S
    C1536  H1537     1.08304      .   S
    H3042  C3030     1.08156      .   S
    C3002  C3001     1.40172      .   S
    C3002  C3006     1.48679      .   S
    C1539  H1540     1.08331      .   S
    C3672  H3686     1.08062      .   S
    C3672  C3673     1.39682      .   S
    C2646  C2647     1.34107      .   S
    C3888  H3902     1.07930      .   S
    C3888  C3889     1.39352      .   S
    C1557  H1558     1.08280      .   S
    C1466  O1464     1.27176      .   S
    C1430  O1428     1.26988      .   S
    C1508  O1506     1.27051      .   S
    C4374  C4375     1.34139      .   S
    C1179  H1180     1.08262      .   S
    C1076  O1074     1.27002      .   S
    C4346  C4345     1.40240      .   S
    C4346  C4350     1.48696      .   S
    C1400  O1398     1.26927      .   S
    C1176  H1177     1.08334      .   S
    C2838  C2839     1.34198      .   S
    C1112  O1110     1.27245      .   S
    C2835  H2848     1.08101      .   S
    C1142  O1140     1.27177      .   S
    C3864  H3878     1.08037      .   S
    C3864  C3865     1.39818      .   S
    C1194  H1195     1.08339      .   S
    C1394  O1392     1.27091      .   S
    C4371  H4384     1.08151      .   S
    C2618  C2617     1.39984      .   S
    C2618  C2622     1.48544      .   S
    C1502  O1500     1.27017      .   S
    C4083  H4096     1.08071      .   S
    C1472  O1470     1.27012      .   S
    C1436  O1434     1.27035      .   S
    C2643  H2656     1.08101      .   S
    C3099  H3112     1.08044      .   S
    C1070  O1068     1.27024      .   S
    C1148  O1146     1.27067      .   S
    C3674  C3673     1.40134      .   S
    C3674  C3678     1.48347      .   S
    C4086  C4087     1.34368      .   S
    C3890  C3889     1.39863      .   S
    C3890  C3894     1.48404      .   S
    C1034  O1032     1.26979      .   S
    H4363  C4351     1.08120      .   S
    C3702  C3703     1.34032      .   S
    C2814  C2815     1.34120      .   S
    C2811  H2824     1.08116      .   S
    C1040  O1038     1.27126      .   S
    H3138  C3126     1.08151      .   S
    C4057  H4071     1.08363      .   S
    C1106  O1104     1.26923      .   S
    H3019  C3007     1.08126      .   S
    C3866  C3865     1.40272      .   S
    C3866  C3870     1.48617      .   S
    C3030  C3031     1.34006      .   S
    C3027  H3040     1.08182      .   S
    H3114  C3102     1.07936      .   S
    H3691  C3679     1.08192      .   S
    C3699  H3712     1.08166      .   S
    C2623  C2622     1.34113      .   S
    C2623  C2624     1.48588      .   S
    C3001  H3015     1.08383      .   S
    C2625  C2626     1.39624      .   S
    C2625  C2624     1.40245      .   S
    C3123  H3136     1.08108      .   S
    C3102  C3103     1.34254      .   S
    C3895  C3894     1.34013      .   S
    C3895  C3896     1.48503      .   S
    H4075  C4063     1.08177      .   S
    H2637  C2626     1.08286      .   S
    C3897  C3898     1.39580      .   S
    C3897  C3896     1.40204      .   S
    C3873  C3874     1.39589      .   S
    C3873  C3872     1.40362      .   S
    C3871  C3870     1.34221      .   S
    C3871  C3872     1.48692      .   S
    C3126  C3127     1.33965      .   S
    C4345  H4359     1.08354      .   S
    H3909  C3898     1.08314      .   S
    H3885  C3874     1.08309      .   S
    C2617  H2631     1.08416      .   S
    C3673  H3687     1.08386      .   S
    C4062  C4063     1.34162      .   S
    C4062  H4074     1.07978      .   S
    C3889  H3903     1.08375      .   S
    C3006  C3007     1.34279      .   S
    C3006  H3018     1.08133      .   S
    C4351  C4350     1.34274      .   S
    C4351  C4352     1.48819      .   S
    C3007  C3008     1.48914      .   S
    C4350  H4362     1.08064      .   S
    C3865  H3879     1.08351      .   S
    C4063  C4064     1.48646      .   S
    H2662  C2652     1.08290      .   S
    C3679  C3678     1.34178      .   S
    C3679  C3680     1.48485      .   S
    C4375  H4387     1.08255      .   S
    C4375  C4376     1.48389      .   S
    C2622  H2634     1.08201      .   S
    C3678  H3690     1.08129      .   S
    C2839  H2851     1.08218      .   S
    C2839  C2840     1.48667      .   S
    C3894  H3906     1.08186      .   S
    C4087  H4099     1.08132      .   S
    C4087  C4088     1.48728      .   S
    C2815  H2827     1.08233      .   S
    C2815  C2816     1.48549      .   S
    C2653  C2652     1.39676      .   S
    C2653  C2648     1.40929      .   S
    C3103  H3115     1.08100      .   S
    C3103  C3104     1.48895      .   S
    C2626  C2627     1.40609      .   S
    C3703  H3715     1.08264      .   S
    C3703  C3704     1.48330      .   S
    C3870  H3882     1.08141      .   S
    C3031  H3043     1.08196      .   S
    C3031  C3032     1.48075      .   S
    C2624  C2629     1.41008      .   S
    C3898  C3899     1.40650      .   S
    C3874  C3875     1.40514      .   S
    C3896  C3901     1.41128      .   S
    C3127  H3139     1.08230      .   S
    C3127  C3128     1.48419      .   S
    C3872  C3877     1.40946      .   S
    H2855  C2845     1.08020      .   S
    H4391  C4381     1.08078      .   S
    C2647  C2648     1.48383      .   S
    C2647  H2659     1.08183      .   S
    H4364  C4353     1.08327      .   S
    H3719  C3709     1.08114      .   S
    H2831  C2821     1.08053      .   S
    H4103  C4093     1.08083      .   S
    O1117  C1118     1.27033      .   S
    O1483  C1484     1.27099      .   S
    O1405  C1406     1.27044      .   S
    H3020  C3009     1.08304      .   S
    C4376  C4381     1.40901      .   S
    C4376  C4377     1.40338      .   S
    C4352  C4353     1.40429      .   S
    C4352  C4357     1.40995      .   S
    H3692  C3681     1.08359      .   S
    C2840  C2845     1.41010      .   S
    C2840  C2841     1.40367      .   S
    O1513  C1514     1.27096      .   S
    H3119  C3109     1.07923      .   S
    O1051  C1052     1.27127      .   S
    O1123  C1124     1.27147      .   S
    H4076  C4065     1.08322      .   S
    C3008  C3009     1.40445      .   S
    C3008  C3013     1.40981      .   S
    O1081  C1082     1.27048      .   S
    O1441  C1442     1.27013      .   S
    O1045  C1046     1.27080      .   S
    O1447  C1448     1.27130      .   S
    O1519  C1520     1.27074      .   S
    O1159  C1160     1.27119      .   S
    H3047  C3037     1.08111      .   S
    C2652  C2651     1.40412      .   S
    C2816  C2821     1.41010      .   S
    C2816  C2817     1.40345      .   S
    O1411  C1412     1.27126      .   S
    C4064  C4065     1.40474      .   S
    C4064  C4069     1.41061      .   S
    C3104  C3109     1.41234      .   S
    C3104  C3105     1.40462      .   S
    O1477  C1478     1.27095      .   S
    C4088  C4093     1.40936      .   S
    C4088  C4089     1.40438      .   S
    C2845  C2844     1.40122      .   S
    C3704  C3709     1.40977      .   S
    C3704  C3705     1.40201      .   S
    C4381  C4380     1.40002      .   S
    C3680  C3681     1.40377      .   S
    C3680  C3685     1.40863      .   S
    O1087  C1088     1.26902      .   S
    O1153  C1154     1.27156      .   S
    C3032  C3037     1.40906      .   S
    C3032  C3033     1.40249      .   S
    H3143  C3133     1.08041      .   S
    C4353  C4354     1.39817      .   S
    C2821  C2820     1.40007      .   S
    C3709  C3708     1.39934      .   S
    H1121  C1120     1.08336      .   S
    H4367  C4357     1.07994      .   S
    H3023  C3013     1.08084      .   S
    C4093  C4092     1.40041      .   S
    H1487  C1486     1.08329      .   S
    C3128  C3133     1.41152      .   S
    C3128  C3129     1.40283      .   S
    C3109  C3108     1.39998      .   S
    H4079  C4069     1.07921      .   S
    C3009  C3010     1.39785      .   S
    H1409  C1408     1.08386      .   S
    C3681  C3682     1.39711      .   S
    C3037  C3036     1.39854      .   S
    C4065  C4066     1.39676      .   S
    H3116  C3105     1.08360      .   S
    H1523  C1522     1.08349      .   S
    H1517  C1516     1.08339      .   S
    H1127  C1126     1.08375      .   S
    H1163  C1162     1.08350      .   S
    H1085  C1084     1.08343      .   S
    H3695  C3685     1.08054      .   S
    C2648  C2649     1.40409      .   S
    H4388  C4377     1.08315      .   S
    H1445  C1444     1.08363      .   S
    H1049  C1048     1.08359      .   S
    C4357  C4356     1.39902      .   S
    H1451  C1450     1.08353      .   S
    C3133  C3132     1.39839      .   S
    H1415  C1414     1.08274      .   S
    H2828  C2817     1.08343      .   S
    H2852  C2841     1.08358      .   S
    C3013  C3012     1.39949      .   S
    C4377  C4378     1.39571      .   S
    C3105  C3106     1.39614      .   S
    H1055  C1054     1.08375      .   S
    C4069  C4068     1.39595      .   S
    H4100  C4089     1.08294      .   S
    C2841  C2842     1.39575      .   S
    H3044  C3033     1.08371      .   S
    C2817  C2818     1.39571      .   S
    H1091  C1090     1.08287      .   S
    H3716  C3705     1.08380      .   S
    H1481  C1480     1.08298      .   S
    H1157  C1156     1.08338      .   S
    C3685  C3684     1.39758      .   S
    H3140  C3129     1.08317      .   S
    C4089  C4090     1.39706      .   S
    C3705  C3706     1.39464      .   S
    C3033  C3034     1.39415      .   S
    C3129  C3130     1.39492      .   S
    C2844  H2854     1.08277      .   S
    C2844  C2843     1.40408      .   S
    C4380  H4390     1.08285      .   S
    C4380  C4379     1.40461      .   S
    C3708  H3718     1.08340      .   S
    C3708  C3707     1.40427      .   S
    C2820  H2830     1.08261      .   S
    C2820  C2819     1.40396      .   S
    C3108  H3118     1.08311      .   S
    C3108  C3107     1.40273      .   S
    C4354  H4365     1.08288      .   S
    C4354  C4355     1.40445      .   S
    C4092  H4102     1.08242      .   S
    C4092  C4091     1.40514      .   S
    C3036  H3046     1.08283      .   S
    C3036  C3035     1.40300      .   S
    C3132  H3142     1.08333      .   S
    C3132  C3131     1.40248      .   S
    C3010  H3021     1.08314      .   S
    C3010  C3011     1.40545      .   S
    C3682  H3693     1.08300      .   S
    C3682  C3683     1.40395      .   S
    C4066  H4077     1.08304      .   S
    C4066  C4067     1.40347      .   S
    C2627  C1211     1.48655      .   S
    C2627  C2628     1.40499      .   S
    C3106  C3107     1.40442      .   S
    C3106  H3117     1.08296      .   S
    C1118  O1116     1.27133      .   S
    C1118  C1119     1.48208      .   S
    C4378  C4379     1.40454      .   S
    C4378  H4389     1.08303      .   S
    C1484  O1482     1.27001      .   S
    C1484  C1485     1.48309      .   S
    C4356  C4355     1.40490      .   S
    C4356  H4366     1.08284      .   S
    C2629  H2639     1.08098      .   S
    C2629  C2628     1.40031      .   S
    C1406  O1404     1.27068      .   S
    C1406  C1407     1.48168      .   S
    C2842  C2843     1.40596      .   S
    C2842  H2853     1.08313      .   S
    C3899  C1550     1.48419      .   S
    C3899  C3900     1.40368      .   S
    C2818  C2819     1.40461      .   S
    C2818  H2829     1.08269      .   S
    C3875  C1190     1.48661      .   S
    C3875  C3876     1.40482      .   S
    C1514  O1512     1.27068      .   S
    C1514  C1515     1.48484      .   S
    C1120  C1211     1.40407      .   S
    C1120  C1119     1.40299      .   S
    C3012  C3011     1.40365      .   S
    C3012  H3022     1.08327      .   S
    C1082  O1080     1.27103      .   S
    C1082  C1083     1.48339      .   S
    C1448  O1446     1.26956      .   S
    C1448  C1449     1.48028      .   S
    C1520  O1518     1.26971      .   S
    C1520  C1521     1.48025      .   S
    C3706  C3707     1.40516      .   S
    C3706  H3717     1.08292      .   S
    C1124  O1122     1.27069      .   S
    C1124  C1125     1.48535      .   S
    C1442  O1440     1.27180      .   S
    C1442  C1443     1.48245      .   S
    C4068  C4067     1.40269      .   S
    C4068  H4078     1.08301      .   S
    C1046  O1044     1.27045      .   S
    C1046  C1047     1.48240      .   S
    C1052  O1050     1.26964      .   S
    C1052  C1053     1.48022      .   S
    C1160  O1158     1.27117      .   S
    C1160  C1161     1.48441      .   S
    C3901  H3911     1.08075      .   S
    C3901  C3900     1.39948      .   S
    C2843  C1568     1.48721      .   S
    C1412  O1410     1.27044      .   S
    C1412  C1413     1.48250      .   S
    C3034  C3035     1.40433      .   S
    C3034  H3045     1.08278      .   S
    C3130  C3131     1.40418      .   S
    C3130  H3141     1.08321      .   S
    C4090  C4091     1.40439      .   S
    C4090  H4101     1.08307      .   S
    C4379  C1544     1.48483      .   S
    C3684  C3683     1.40518      .   S
    C3684  H3694     1.08319      .   S
    C3877  H3887     1.08082      .   S
    C3877  C3876     1.40109      .   S
    C1478  O1476     1.27016      .   S
    C1478  C1479     1.48164      .   S
    C1486  C1485     1.40781      .   S
    C1486  C1568     1.40626      .   S
    C3107  C1202     1.48383      .   S
    C2819  C1208     1.48409      .   S
    C1408  C1407     1.40539      .   S
    C1408  C1544     1.40458      .   S
    C1088  O1086     1.27101      .   S
    C1088  C1089     1.48036      .   S
    C1522  C1550     1.40249      .   S
    C1522  C1521     1.40104      .   S
    C1162  C1190     1.40393      .   S
    C1162  C1161     1.40472      .   S
    C3707  C1553     1.48329      .   S
    C1154  O1152     1.26976      .   S
    C1154  C1155     1.48109      .   S
    C1084  C1083     1.40759      .   S
    C1084  C1202     1.40580      .   S
    C4355  C1184     1.48561      .   S
    C1516  C1515     1.40734      .   S
    C1516  C1553     1.40468      .   S
    C1126  C1125     1.40735      .   S
    C1126  C1208     1.40576      .   S
    C1048  C1047     1.40398      .   S
    C1048  C1184     1.40601      .   S
    C4091  C1547     1.48607      .   S
    C3035  C1565     1.48040      .   S
    C1444  C1443     1.40747      .   S
    C1444  C1562     1.40468      .   S
    C3131  C1562     1.48122      .   S
    C1450  C1449     1.40586      .   S
    C1450  C1565     1.40344      .   S
    C1414  C1413     1.40630      .   S
    C1414  C1547     1.40556      .   S
    C3011  C1205     1.48563      .   S
    C1054  C1053     1.40314      .   S
    C1054  C1187     1.40226      .   S
    C4067  C1187     1.47995      .   S
    C3683  C1193     1.48428      .   S
    C1090  C1089     1.40425      .   S
    C1090  C1205     1.40446      .   S
    C1480  C1479     1.40547      .   S
    C1480  C1571     1.40467      .   S
    C1156  C1155     1.40426      .   S
    C1156  C1193     1.40464      .   S
    C2651  C1571     1.48089      .   S
    C2651  C2650     1.40382      .   S
    C1211  C1102     1.40753      .   S
    C1119  C1209     1.40362      .   S
    C2628  H2638     1.08321      .   S
    C1485  C1566     1.40655      .   S
    C1407  C1542     1.40609      .   S
    C2649  C2650     1.39658      .   S
    C2649  H2660     1.08376      .   S
    C1190  C1060     1.40514      .   S
    C1550  C1420     1.40713      .   S
    C1568  C1456     1.40370      .   S
    C1521  C1548     1.40315      .   S
    C1161  C1188     1.40673      .   S
    C1544  C1534     1.40378      .   S
    C1083  C1200     1.40574      .   S
    C3900  H3910     1.08324      .   S
    C1515  C1551     1.40917      .   S
    C1125  C1206     1.40727      .   S
    C1047  C1182     1.40349      .   S
    C1202  C1138     1.40276      .   S
    C1449  C1563     1.40685      .   S
    C3876  H3886     1.08245      .   S
    C1443  C1560     1.40680      .   S
    C1208  C1096     1.40336      .   S
    C1553  C1426     1.40148      .   S
    C1413  C1545     1.40537      .   S
    C1053  C1185     1.40505      .   S
    C1184  C1174     1.40657      .   S
    C1479  C1569     1.40659      .   S
    C1562  C1498     1.40147      .   S
    C1565  C1492     1.40136      .   S
    C1089  C1203     1.40198      .   S
    C1547  C1528     1.40610      .   S
    C1155  C1191     1.40501      .   S
    C1187  C1168     1.40437      .   S
    C1205  C1132     1.40689      .   S
    C1193  C1066     1.40522      .   S
    C1571  C1462     1.40244      .   S
    C2650  H2661     1.08361      .   S
    C1102  H1103     1.08342      .   S
    C1102  C1101     1.40758      .   S
    C1209  H1210     1.08276      .   S
    C1209  C1101     1.40661      .   S
    C1060  H1061     1.08342      .   S
    C1060  C1059     1.40722      .   S
    C1542  H1543     1.08313      .   S
    C1542  C1533     1.40424      .   S
    C1566  H1567     1.08338      .   S
    C1566  C1455     1.40335      .   S
    C1420  H1421     1.08347      .   S
    C1420  C1419     1.40793      .   S
    C1188  H1189     1.08304      .   S
    C1188  C1059     1.40845      .   S
    C1200  H1201     1.08310      .   S
    C1200  C1137     1.40388      .   S
    C1548  H1549     1.08346      .   S
    C1548  C1419     1.40646      .   S
    C1534  H1535     1.08309      .   S
    C1534  C1533     1.40364      .   S
    C1182  H1183     1.08280      .   S
    C1182  C1173     1.40552      .   S
    C1456  H1457     1.08373      .   S
    C1456  C1455     1.40379      .   S
    C1138  H1139     1.08318      .   S
    C1138  C1137     1.40306      .   S
    C1563  H1564     1.08341      .   S
    C1563  C1491     1.40348      .   S
    C1206  H1207     1.08316      .   S
    C1206  C1095     1.40627      .   S
    C1551  H1552     1.08263      .   S
    C1551  C1425     1.40670      .   S
    C1185  H1186     1.08280      .   S
    C1185  C1167     1.40665      .   S
    C1174  H1175     1.08323      .   S
    C1174  C1173     1.40633      .   S
    C1560  H1561     1.08303      .   S
    C1560  C1497     1.40381      .   S
    C1096  H1097     1.08325      .   S
    C1096  C1095     1.40251      .   S
    C1545  H1546     1.08258      .   S
    C1545  C1527     1.40511      .   S
    C1426  H1427     1.08358      .   S
    C1426  C1425     1.40158      .   S
    C1203  H1204     1.08338      .   S
    C1203  C1131     1.40535      .   S
    C1569  H1570     1.08346      .   S
    C1569  C1461     1.40476      .   S
    C1492  H1493     1.08344      .   S
    C1492  C1491     1.40198      .   S
    C1191  H1192     1.08374      .   S
    C1191  C1065     1.40533      .   S
    C1498  H1499     1.08371      .   S
    C1498  C1497     1.40087      .   S
    C1528  H1529     1.08308      .   S
    C1528  C1527     1.40525      .   S
    C1132  H1133     1.08307      .   S
    C1132  C1131     1.40782      .   S
    C1168  H1169     1.08334      .   S
    C1168  C1167     1.40475      .   S
    C1066  H1067     1.08342      .   S
    C1066  C1065     1.40548      .   S
    C1462  H1463     1.08385      .   S
    C1462  C1461     1.40338      .   S
    C1101  C1100     1.48443      .   S
    C1059  C1058     1.48594      .   S
    C1533  C1532     1.48144      .   S
    C1419  C1418     1.48384      .   S
    C1455  C1454     1.48204      .   S
    C1137  C1136     1.48039      .   S
    C1173  C1172     1.48289      .   S
    C1095  C1094     1.48241      .   S
    C1491  C1490     1.47963      .   S
    C1425  C1424     1.48177      .   S
    C1497  C1496     1.47861      .   S
    C1167  C1166     1.48149      .   S
    C1527  C1526     1.48323      .   S
    C1131  C1130     1.48208      .   S
    C1065  C1064     1.48197      .   S
    C1461  C1460     1.48126      .   S
    C1100  O1099     1.27124      .   S
    C1100  O1098     1.27100      .   S
    C1058  O1057     1.27177      .   S
    C1058  O1056     1.27071      .   S
    C1532  O1530     1.27094      .   S
    C1532  O1531     1.27057      .   S
    C1418  O1417     1.27102      .   S
    C1418  O1416     1.27077      .   S
    C1136  O1134     1.26966      .   S
    C1136  O1135     1.27013      .   S
    C1172  O1171     1.27134      .   S
    C1172  O1170     1.27022      .   S
    C1454  O1452     1.27209      .   S
    C1454  O1453     1.26922      .   S
    C1490  O1489     1.27068      .   S
    C1490  O1488     1.26958      .   S
    C1094  O1092     1.26938      .   S
    C1094  O1093     1.27191      .   S
    C1166  O1165     1.27130      .   S
    C1166  O1164     1.26974      .   S
    C1130  O1128     1.27152      .   S
    C1130  O1129     1.27025      .   S
    C1496  O1494     1.26892      .   S
    C1496  O1495     1.27132      .   S
    C1424  O1422     1.26958      .   S
    C1424  O1423     1.27109      .   S
    C1064  O1063     1.27047      .   S
    C1064  O1062     1.27063      .   S
    C1526  O1524     1.27119      .   S
    C1526  O1525     1.27041      .   S
    C1460  O1458     1.27039      .   S
    C1460  O1459     1.27021      .   S
    O1345  C1346     1.27060      .   S
    O1344  C1346     1.27016      .   S
    O1314  C1316     1.26943      .   S
    O1315  C1316     1.27234      .   S
    O1236  C1238     1.27009      .   S
    O1632  C1634     1.27012      .   S
    O1237  C1238     1.27197      .   S
    O1633  C1634     1.27169      .   S
    O1674  C1676     1.27034      .   S
    O1675  C1676     1.27049      .   S
    O1272  C1274     1.27125      .   S
    O1273  C1274     1.27166      .   S
    O1711  C1712     1.26948      .   S
    O1710  C1712     1.27080      .   S
    O1603  C1604     1.26943      .   S
    O1602  C1604     1.27120      .   S
    O1350  C1352     1.27053      .   S
    O1242  C1244     1.27014      .   S
    O1278  C1280     1.27059      .   S
    O1279  C1280     1.27082      .   S
    O1308  C1310     1.27026      .   S
    O1351  C1352     1.27066      .   S
    O1596  C1598     1.27099      .   S
    O1309  C1310     1.27090      .   S
    O1597  C1598     1.26976      .   S
    O1243  C1244     1.27133      .   S
    O1668  C1670     1.27082      .   S
    O1638  C1640     1.27115      .   S
    O1704  C1706     1.26958      .   S
    O1669  C1670     1.27136      .   S
    O1639  C1640     1.26990      .   S
    O1705  C1706     1.27023      .   S
    C1346  C1347     1.48051      .   S
    C1316  C1317     1.48203      .   S
    C1238  C1239     1.48345      .   S
    C1634  C1635     1.48271      .   S
    C1676  C1677     1.48175      .   S
    C1274  C1275     1.48516      .   S
    C1712  C1713     1.47904      .   S
    C1604  C1605     1.48103      .   S
    C1352  C1353     1.48288      .   S
    C1280  C1281     1.48188      .   S
    C1244  C1245     1.48120      .   S
    C1598  C1599     1.48061      .   S
    C1310  C1311     1.48105      .   S
    C1670  C1671     1.48352      .   S
    C1640  C1641     1.48140      .   S
    C1706  C1707     1.47822      .   S
    C1317  C1318     1.40516      .   S
    C1317  C1380     1.40712      .   S
    C1347  C1348     1.40371      .   S
    C1347  C1365     1.40496      .   S
    C1635  C1636     1.40569      .   S
    C1635  C1746     1.40777      .   S
    C1239  C1368     1.40801      .   S
    C1239  C1240     1.40834      .   S
    H1349  C1348     1.08348      .   S
    C1677  C1678     1.40281      .   S
    C1677  C1740     1.40498      .   S
    H1637  C1636     1.08344      .   S
    C1275  C1386     1.40809      .   S
    C1275  C1276     1.40947      .   S
    C1713  C1714     1.40229      .   S
    C1713  C1722     1.40402      .   S
    H1319  C1318     1.08355      .   S
    C1605  C1606     1.40248      .   S
    C1605  C1731     1.40425      .   S
    C1353  C1354     1.40500      .   S
    C1353  C1362     1.40625      .   S
    C1281  C1282     1.40477      .   S
    C1281  C1389     1.40494      .   S
    C1245  C1246     1.40622      .   S
    C1245  C1371     1.40600      .   S
    C1599  C1600     1.40685      .   S
    C1599  C1728     1.40528      .   S
    C1311  C1312     1.40610      .   S
    C1311  C1383     1.40599      .   S
    H1607  C1606     1.08334      .   S
    C1671  C1672     1.40580      .   S
    C1671  C1743     1.40676      .   S
    C1641  C1642     1.40689      .   S
    C1641  C1749     1.40379      .   S
    H1679  C1678     1.08341      .   S
    C1707  C1708     1.40509      .   S
    C1707  C1725     1.40509      .   S
    H1369  C1368     1.08242      .   S
    H1283  C1282     1.08287      .   S
    H1381  C1380     1.08322      .   S
    H1715  C1714     1.08348      .   S
    H1643  C1642     1.08265      .   S
    H1355  C1354     1.08385      .   S
    H1241  C1240     1.08315      .   S
    H1673  C1672     1.08331      .   S
    H1247  C1246     1.08348      .   S
    H1313  C1312     1.08298      .   S
    H1387  C1386     1.08272      .   S
    H1741  C1740     1.08333      .   S
    H1601  C1600     1.08314      .   S
    H1277  C1276     1.08370      .   S
    H1366  C1365     1.08361      .   S
    H1747  C1746     1.08367      .   S
    H1723  C1722     1.08350      .   S
    H1729  C1728     1.08275      .   S
    H1372  C1371     1.08335      .   S
    H1363  C1362     1.08325      .   S
    H1726  C1725     1.08299      .   S
    H1384  C1383     1.08262      .   S
    H1709  C1708     1.08363      .   S
    H1390  C1389     1.08327      .   S
    H4173  C4162     1.08286      .   S
    H1732  C1731     1.08321      .   S
    H1744  C1743     1.08311      .   S
    H1750  C1749     1.08309      .   S
    C1348  C1367     1.40299      .   S
    C1318  C1382     1.40403      .   S
    C1636  C1748     1.40385      .   S
    C1380  C1263     1.40594      .   S
    H3982  C3972     1.08347      .   S
    C1368  C1341     1.40452      .   S
    H4006  C3996     1.08292      .   S
    C1240  C1370     1.40516      .   S
    C1606  C1733     1.40233      .   S
    C1678  C1742     1.40307      .   S
    C1282  C1391     1.40511      .   S
    C1354  C1364     1.40235      .   S
    C1746  C1665     1.40552      .   S
    C1714  C1724     1.40334      .   S
    C1365  C1233     1.40522      .   S
    C1246  C1373     1.40467      .   S
    C1312  C1385     1.40561      .   S
    C1386  C1305     1.40426      .   S
    C1672  C1745     1.40342      .   S
    C1642  C1751     1.40733      .   S
    C1740  C1623     1.40695      .   S
    C1276  C1388     1.40695      .   S
    C1600  C1730     1.40507      .   S
    C1371  C1335     1.40373      .   S
    C1362  C1227     1.40675      .   S
    C1722  C1587     1.40572      .   S
    C1728  C1701     1.40331      .   S
    H2734  C2724     1.08303      .   S
    C1383  C1269     1.40336      .   S
    C1389  C1299     1.40531      .   S
    H4198  C4188     1.08309      .   S
    C1731  C1695     1.40796      .   S
    C1743  C1629     1.40780      .   S
    C1708  C1727     1.40300      .   S
    C1725  C1593     1.40297      .   S
    C1749  C1659     1.40246      .   S
    H4172  C4161     1.08318      .   S
    C4162  C4161     1.39751      .   S
    C4162  C4163     1.40470      .   S
    C1382  C1264     1.40385      .   S
    C1382  C3203     1.48221      .   S
    C1748  C2747     1.47985      .   S
    C1748  C1666     1.40081      .   S
    H4007  C3997     1.08115      .   S
    C1367  C4163     1.48305      .   S
    C1367  C1234     1.40533      .   S
    C3972  C3973     1.40019      .   S
    C3972  C3971     1.40380      .   S
    C1263  C1264     1.40457      .   S
    C1263  C1262     1.48235      .   S
    C3996  C3997     1.39902      .   S
    C3996  C3995     1.40431      .   S
    H3983  C3973     1.08090      .   S
    C1364  C1228     1.40226      .   S
    C1364  C4259     1.47677      .   S
    C1341  C1342     1.40238      .   S
    C1341  C1340     1.48157      .   S
    C1370  C1342     1.40335      .   S
    C1370  C3971     1.48426      .   S
    C1391  C2531     1.48383      .   S
    C1391  C1300     1.40525      .   S
    C1373  C1336     1.40160      .   S
    C1373  C3779     1.48083      .   S
    C1665  C1666     1.40222      .   S
    C1665  C1664     1.48061      .   S
    C1733  C3803     1.48297      .   S
    C1733  C1696     1.40495      .   S
    C1385  C1270     1.40280      .   S
    C1385  C2915     1.48070      .   S
    C1745  C1630     1.40250      .   S
    C1745  C2939     1.48178      .   S
    C1751  C2555     1.48653      .   S
    C1751  C1660     1.40451      .   S
    C1742  C1624     1.40394      .   S
    C1742  C3227     1.48317      .   S
    C2724  C2725     1.40060      .   S
    C2724  C2723     1.40333      .   S
    C1233  C1234     1.40646      .   S
    C1233  C1232     1.48215      .   S
    C1227  C1228     1.40393      .   S
    C1227  C1226     1.48217      .   S
    C4188  C4189     1.39776      .   S
    C4188  C4187     1.40295      .   S
    C1724  C1588     1.40414      .   S
    C1724  C4283     1.48194      .   S
    C1730  C1702     1.40320      .   S
    C1730  C3995     1.48314      .   S
    C1335  C1336     1.40242      .   S
    C1335  C1334     1.47927      .   S
    C1305  C1306     1.40152      .   S
    C1305  C1304     1.48098      .   S
    C1623  C1624     1.40707      .   S
    C1623  C1622     1.48298      .   S
    C1269  C1270     1.40282      .   S
    C1269  C1268     1.47905      .   S
    C1388  C1306     1.40292      .   S
    C1388  C2723     1.48446      .   S
    H4199  C4189     1.08060      .   S
    C1299  C1300     1.40458      .   S
    C1299  C1298     1.48168      .   S
    C1701  C1702     1.40309      .   S
    C1701  C1700     1.47877      .   S
    C1629  C1630     1.40326      .   S
    C1629  C1628     1.48213      .   S
    H2735  C2725     1.08058      .   S
    C1587  C1588     1.40621      .   S
    C1587  C1586     1.47996      .   S
    C1695  C1696     1.40711      .   S
    C1695  C1694     1.48248      .   S
    C1659  C1660     1.40354      .   S
    C1659  C1658     1.47920      .   S
    C1727  C1594     1.40156      .   S
    C1727  C4187     1.47898      .   S
    C1593  C1594     1.40163      .   S
    C1593  C1592     1.47708      .   S
    O1260  C1262     1.27112      .   S
    O1338  C1340     1.27040      .   S
    C4161  C4160     1.40423      .   S
    O1302  C1304     1.26984      .   S
    O1224  C1226     1.27038      .   S
    O1332  C1334     1.27051      .   S
    O1266  C1268     1.27023      .   S
    O1230  C1232     1.27040      .   S
    O1662  C1664     1.26948      .   S
    O1296  C1298     1.27023      .   S
    O1620  C1622     1.27015      .   S
    O1698  C1700     1.27054      .   S
    O1590  C1592     1.26977      .   S
    H4269  C4258     1.08299      .   S
    H3813  C3802     1.08330      .   S
    O1626  C1628     1.26970      .   S
    O1584  C1586     1.27053      .   S
    O1656  C1658     1.27100      .   S
    O1692  C1694     1.27007      .   S
    C1264  H1265     1.08319      .   S
    H4293  C4282     1.08303      .   S
    H2542  C2532     1.08309      .   S
    H3237  C3226     1.08345      .   S
    C2747  C2748     1.40271      .   S
    C2747  C2746     1.40381      .   S
    H3214  C3204     1.08302      .   S
    H2758  C2748     1.08336      .   S
    C1666  H1667     1.08336      .   S
    C3203  C3204     1.40400      .   S
    C3203  C3202     1.40402      .   S
    H2566  C2556     1.08331      .   S
    C4163  C4164     1.40415      .   S
    C1342  H1343     1.08337      .   S
    C1228  H1229     1.08396      .   S
    C4259  C4258     1.40361      .   S
    C4259  C4260     1.40367      .   S
    C3997  C3992     1.40992      .   S
    C1234  H1235     1.08283      .   S
    C1336  H1337     1.08362      .   S
    C3973  C3968     1.40973      .   S
    C2531  C2532     1.40529      .   S
    C2531  C2530     1.40460      .   S
    C3803  C3802     1.40505      .   S
    C3803  C3804     1.40331      .   S
    C1270  H1271     1.08342      .   S
    C1300  H1301     1.08329      .   S
    H2950  C2940     1.08284      .   S
    C1630  H1631     1.08294      .   S
    C2555  C2556     1.40436      .   S
    C2555  C2554     1.40496      .   S
    C1624  H1625     1.08340      .   S
    C1262  O1261     1.27070      .   S
    C3779  C3780     1.40244      .   S
    C3779  C3778     1.40373      .   S
    C1702  H1703     1.08323      .   S
    C2915  C2916     1.40264      .   S
    C2915  C2914     1.40423      .   S
    C2939  C2940     1.40390      .   S
    C2939  C2938     1.40335      .   S
    C1660  H1661     1.08357      .   S
    C1696  H1697     1.08366      .   S
    C1306  H1307     1.08270      .   S
    C1340  O1339     1.27062      .   S
    H2757  C2746     1.08321      .   S
    C3227  C3226     1.40427      .   S
    C3227  C3228     1.40448      .   S
    C1588  H1589     1.08301      .   S
    H2926  C2916     1.08349      .   S
    C3971  C3970     1.40510      .   S
    C3802  C3801     1.39528      .   S
    H3790  C3780     1.08352      .   S
    C4258  C4257     1.39841      .   S
    H3213  C3202     1.08255      .   S
    C4283  C4282     1.40473      .   S
    C4283  C4284     1.40396      .   S
    C4189  C4184     1.40967      .   S
    C1594  H1595     1.08367      .   S
    C2725  C2720     1.41161      .   S
    C3995  C3994     1.40435      .   S
    C2748  C2749     1.39617      .   S
    C1664  O1663     1.27163      .   S
    C3204  C3205     1.39713      .   S
    C1304  O1303     1.27109      .   S
    C1226  O1225     1.27117      .   S
    C2532  C2533     1.39744      .   S
    C1334  O1333     1.27008      .   S
    C1232  O1231     1.27052      .   S
    C2723  C2722     1.40504      .   S
    C1268  O1267     1.26919      .   S
    C1622  O1621     1.27082      .   S
    C1700  O1699     1.27012      .   S
    C1298  O1297     1.27110      .   S
    H3789  C3778     1.08278      .   S
    C3226  C3225     1.39485      .   S
    C2556  C2557     1.39915      .   S
    H2925  C2914     1.08275      .   S
    C4282  C4281     1.39410      .   S
    C4187  C4186     1.40493      .   S
    C1628  O1627     1.27199      .   S
    C1592  O1591     1.26917      .   S
    C1586  O1585     1.27029      .   S
    C1658  O1657     1.26955      .   S
    C2746  C2745     1.39670      .   S
    C1694  O1693     1.27119      .   S
    H2949  C2938     1.08327      .   S
    C2940  C2941     1.39631      .   S
    H4270  C4260     1.08362      .   S
    C3202  C3201     1.39756      .   S
    H2541  C2530     1.08280      .   S
    H2565  C2554     1.08286      .   S
    C2916  C2917     1.39672      .   S
    C3780  C3781     1.39684      .   S
    H3814  C3804     1.08311      .   S
    C4260  C4261     1.39754      .   S
    C3778  C3777     1.39779      .   S
    C2914  C2913     1.39787      .   S
    C2530  C2529     1.39769      .   S
    C3804  C3805     1.39913      .   S
    C2938  C2937     1.39791      .   S
    H3238  C3228     1.08337      .   S
    C2554  C2553     1.39815      .   S
    H4002  C3990     1.08134      .   S
    H4294  C4284     1.08334      .   S
    C3228  C3229     1.39912      .   S
    H3978  C3966     1.08092      .   S
    C4284  C4285     1.39896      .   S
    C3801  H3812     1.08320      .   S
    C3801  C3800     1.40244      .   S
    H4194  C4182     1.08197      .   S
    C4257  H4268     1.08279      .   S
    C4257  C4256     1.40246      .   S
    H2730  C2718     1.08132      .   S
    H4171  C4159     1.08147      .   S
    C2533  H2543     1.08138      .   S
    C2533  C2528     1.40839      .   S
    C3225  H3236     1.08361      .   S
    C3225  C3224     1.40258      .   S
    C4281  H4292     1.08397      .   S
    C4281  C4280     1.40312      .   S
    C3205  H3215     1.07994      .   S
    C3205  C3200     1.40992      .   S
    C2749  H2759     1.08024      .   S
    C2749  C2744     1.41013      .   S
    H3999  C3985     1.08363      .   S
    C2557  H2567     1.08074      .   S
    C2557  C2552     1.40929      .   S
    C2745  C2744     1.40402      .   S
    C2745  H2756     1.08309      .   S
    C3201  C3200     1.40434      .   S
    C3201  H3212     1.08347      .   S
    C2941  H2951     1.08042      .   S
    C2941  C2936     1.40920      .   S
    H2727  C2713     1.08362      .   S
    C3805  C3800     1.40966      .   S
    C3805  H3815     1.08123      .   S
    C4261  C4256     1.40567      .   S
    C4261  H4271     1.08262      .   S
    C4160  C4159     1.48595      .   S
    C4160  C4165     1.40926      .   S
    H3975  C3961     1.08377      .   S
    C2917  H2927     1.08032      .   S
    C2917  C2912     1.40999      .   S
    C3781  H3791     1.07970      .   S
    C3781  C3776     1.41033      .   S
    H4191  C4177     1.08309      .   S
    C2529  C2528     1.40344      .   S
    C2529  H2540     1.08348      .   S
    C3800  C3799     1.48348      .   S
    H2535  C2521     1.08358      .   S
    C2937  C2936     1.40423      .   S
    C2937  H2948     1.08331      .   S
    C2913  H2924     1.08334      .   S
    C2913  C2912     1.40414      .   S
    C2553  C2552     1.40351      .   S
    C2553  H2564     1.08380      .   S
    C3777  H3788     1.08321      .   S
    C3777  C3776     1.40405      .   S
    H2538  C2526     1.08183      .   S
    C4256  C4255     1.47689      .   S
    C3229  C3224     1.40984      .   S
    C3229  H3239     1.08036      .   S
    C4285  C4280     1.40899      .   S
    C4285  H4295     1.08081      .   S
    C3200  C3199     1.48570      .   S
    C2744  C2743     1.48440      .   S
    C2528  C2527     1.48421      .   S
    H4267  C4255     1.08534      .   S
    C3224  C3223     1.48346      .   S
    H2562  C2550     1.08167      .   S
    C2552  C2551     1.48702      .   S
    C4280  C4279     1.48191      .   S
    C4164  C4165     1.39798      .   S
    C4164  H4174     1.08300      .   S
    H2559  C2545     1.08312      .   S
    H4264  C4251     1.08286      .   S
    C2936  C2935     1.48439      .   S
    H3811  C3799     1.08194      .   S
    H3210  C3198     1.08074      .   S
    C3992  C3991     1.48383      .   S
    C3992  C3993     1.40278      .   S
    C2912  C2911     1.48674      .   S
    C3968  C3969     1.40272      .   S
    C3968  C3967     1.48465      .   S
    C3776  C3775     1.48662      .   S
    H2754  C2742     1.08043      .   S
    H2946  C2934     1.08128      .   S
    O1290  C1292     1.27035      .   S
    O1212  C1214     1.27159      .   S
    H3808  C3795     1.08102      .   S
    C3970  H3981     1.08343      .   S
    C3970  C3969     1.39524      .   S
    C4159  C4158     1.34283      .   S
    C3990  C3991     1.34136      .   S
    C3990  C3986     1.48376      .   S
    H3207  C3193     1.08361      .   S
    O1248  C1250     1.27092      .   S
    O1320  C1322     1.27040      .   S
    C4184  C4183     1.47949      .   S
    C4184  C4185     1.40169      .   S
    O1218  C1220     1.27066      .   S
    O1326  C1328     1.27070      .   S
    O1284  C1286     1.27058      .   S
    C3994  C3993     1.39461      .   S
    C3994  H4005     1.08347      .   S
    H2943  C2929     1.08377      .   S
    C2720  C2721     1.40336      .   S
    C2720  C2719     1.48809      .   S
    O1254  C1256     1.27069      .   S
    H2751  C2737     1.08391      .   S
    O1650  C1652     1.26998      .   S
    C3799  C3798     1.34087      .   S
    O1572  C1574     1.27050      .   S
    C2722  H2733     1.08340      .   S
    C2722  C2721     1.39620      .   S
    O1680  C1682     1.27004      .   S
    H3235  C3223     1.08240      .   S
    O1614  C1616     1.27044      .   S
    C3966  C3967     1.34138      .   S
    C3966  C3962     1.48444      .   S
    O1608  C1610     1.27072      .   S
    H3232  C3219     1.08109      .   S
    C4186  H4197     1.08237      .   S
    C4186  C4185     1.39429      .   S
    H2922  C2910     1.08045      .   S
    O1686  C1688     1.26999      .   S
    H4291  C4279     1.08256      .   S
    H4168  C4155     1.08104      .   S
    C4255  C4254     1.34019      .   S
    H4288  C4275     1.08193      .   S
    H3786  C3774     1.08067      .   S
    O1578  C1580     1.27007      .   S
    C4182  C4183     1.33923      .   S
    C4182  C4178     1.48027      .   S
    O1644  C1646     1.27091      .   S
    C3985  C3986     1.40203      .   S
    C3985  C3984     1.39685      .   S
    H1357  C1356     1.08312      .   S
    C2718  C2719     1.34191      .   S
    C2718  C2714     1.48611      .   S
    H1375  C1374     1.08321      .   S
    H1360  C1359     1.08277      .   S
    C2526  C2527     1.34224      .   S
    C2526  C2522     1.48334      .   S
    H1378  C1377     1.08308      .   S
    C3223  C3222     1.34166      .   S
    C4165  H4175     1.08046      .   S
    H2919  C2905     1.08370      .   S
    C4279  C4278     1.34143      .   S
    H1735  C1734     1.08345      .   S
    H1717  C1716     1.08294      .   S
    H3783  C3769     1.08388      .   S
    C2527  H2539     1.08233      .   S
    C3199  C3198     1.34299      .   S
    C3199  H3211     1.08152      .   S
    C3961  C3962     1.40088      .   S
    C3961  C3960     1.39586      .   S
    C2550  C2551     1.34205      .   S
    C2550  C2546     1.48595      .   S
    H1720  C1719     1.08328      .   S
    C2743  C2742     1.34065      .   S
    C2743  H2755     1.08109      .   S
    C3198  C3194     1.48480      .   S
    C2713  C2714     1.40096      .   S
    C2713  C2712     1.39371      .   S
    C4177  C4178     1.40065      .   S
    C4177  C4176     1.39514      .   S
    H1738  C1737     1.08324      .   S
    H3998  C3984     1.08083      .   S
    C2742  C2738     1.48220      .   S
    C2521  C2522     1.40302      .   S
    C2521  C2520     1.39760      .   S
    C2551  H2563     1.08159      .   S
    C2934  C2935     1.34215      .   S
    C2934  C2930     1.48280      .   S
    C2935  H2947     1.08146      .   S
    C3991  H4003     1.08198      .   S
    H2726  C2712     1.08059      .   S
    C2911  C2910     1.34151      .   S
    C2911  H2923     1.08128      .   S
    C3993  H4004     1.08391      .   S
    C3969  H3980     1.08332      .   S
    C3775  C3774     1.34101      .   S
    C3775  H3787     1.08109      .   S
    C3967  H3979     1.08255      .   S
    H3974  C3960     1.08044      .   S
    C2910  C2906     1.48394      .   S
    C2545  C2546     1.40191      .   S
    C2545  C2544     1.39588      .   S
    H4190  C4176     1.08061      .   S
    C3774  C3770     1.48374      .   S
    H2534  C2520     1.08068      .   S
    C3986  C3987     1.40740      .   S
    C4183  H4195     1.08251      .   S
    C2721  H2732     1.08339      .   S
    H4265  C4252     1.08230      .   S
    C4185  H4196     1.08321      .   S
    C3193  C3194     1.40270      .   S
    C3193  C3192     1.39651      .   S
    C2719  H2731     1.08136      .   S
    C2737  C2738     1.40111      .   S
    C2737  C2736     1.39364      .   S
    C2929  C2930     1.40171      .   S
    C2929  C2928     1.39505      .   S
    C3962  C3963     1.40709      .   S
    C3795  C3796     1.40027      .   S
    C3795  C3794     1.40735      .   S
    C3984  C3989     1.40741      .   S
    C4251  C4252     1.39702      .   S
    C4251  C4250     1.40530      .   S
    C3798  H3810     1.08194      .   S
    C3798  C3794     1.48276      .   S
    C4178  C4179     1.40745      .   S
    H2558  C2544     1.08112      .   S
    H3809  C3796     1.08049      .   S
    C2522  C2523     1.40677      .   S
    C1292  O1291     1.27012      .   S
    C1292  C1293     1.48111      .   S
    C2714  C2715     1.41069      .   S
    C1214  O1213     1.26978      .   S
    C1214  C1215     1.48203      .   S
    C3219  C3220     1.39798      .   S
    C3219  C3218     1.40843      .   S
    C2905  C2906     1.40090      .   S
    C2905  C2904     1.39303      .   S
    H4169  C4156     1.08144      .   S
    C3960  C3965     1.41137      .   S
    C4275  C4276     1.39595      .   S
    C4275  C4274     1.40665      .   S
    C3222  H3234     1.08159      .   S
    C3222  C3218     1.48317      .   S
    C2712  C2717     1.40737      .   S
    C1250  O1249     1.27077      .   S
    C1250  C1251     1.48271      .   S
    C4176  C4181     1.40699      .   S
    C4155  C4156     1.40029      .   S
    C4155  C4154     1.40803      .   S
    C1322  O1321     1.27132      .   S
    C1322  C1323     1.48145      .   S
    C1220  O1219     1.26953      .   S
    C1220  C1221     1.47917      .   S
    C1328  O1327     1.27073      .   S
    C1328  C1329     1.48126      .   S
    C3769  C3770     1.40064      .   S
    C3769  C3768     1.39206      .   S
    H3233  C3220     1.08116      .   S
    C1286  O1285     1.26983      .   S
    C1286  C1287     1.47996      .   S
    H4289  C4276     1.08074      .   S
    H3206  C3192     1.08158      .   S
    C2546  C2547     1.40911      .   S
    C3194  C3195     1.40863      .   S
    H2942  C2928     1.07995      .   S
    C1652  O1651     1.26988      .   S
    C1652  C1653     1.47825      .   S
    C1256  O1255     1.27050      .   S
    C1256  C1257     1.48221      .   S
    C2520  C2525     1.40692      .   S
    H2750  C2736     1.08062      .   S
    C4278  H4290     1.08177      .   S
    C4278  C4274     1.48322      .   S
    C1574  O1573     1.27037      .   S
    C1574  C1575     1.48276      .   S
    C1374  C1293     1.40327      .   S
    C1374  C1251     1.40640      .   S
    C1682  O1681     1.27055      .   S
    C1682  C1683     1.47928      .   S
    C1356  C1215     1.40442      .   S
    C1356  C1323     1.40540      .   S
    C2738  C2739     1.40892      .   S
    C1610  O1609     1.27024      .   S
    C1610  C1611     1.48059      .   S
    C1616  O1615     1.26942      .   S
    C1616  C1617     1.47768      .   S
    C4254  H4266     1.08575      .   S
    C4254  C4250     1.47716      .   S
    C1359  C1221     1.40368      .   S
    C1359  C1329     1.40582      .   S
    C1688  O1687     1.27038      .   S
    C1688  C1689     1.48106      .   S
    C1377  C1287     1.40427      .   S
    C1377  C1257     1.40593      .   S
    C2930  C2931     1.40832      .   S
    C1646  O1645     1.27027      .   S
    C1646  C1647     1.48252      .   S
    C1580  O1579     1.27085      .   S
    C1580  C1581     1.48246      .   S
    C1734  C1653     1.40342      .   S
    C1734  C1611     1.40564      .   S
    C1716  C1575     1.40710      .   S
    C1716  C1683     1.40404      .   S
    C4158  C4154     1.48447      .   S
    C4158  H4170     1.08070      .   S
    C1737  C1617     1.40240      .   S
    C1737  C1647     1.40640      .   S
    C2544  C2549     1.40591      .   S
    C1719  C1689     1.40346      .   S
    C1719  C1581     1.40441      .   S
    C2906  C2907     1.40966      .   S
    H2918  C2904     1.08085      .   S
    C3770  C3771     1.40985      .   S
    C4252  C4253     1.40414      .   S
    C3192  C3197     1.40562      .   S
    H3782  C3768     1.08096      .   S
    C2736  C2741     1.40642      .   S
    C3796  C3797     1.41048      .   S
    C3794  C3793     1.39971      .   S
    C2928  C2933     1.40689      .   S
    H432   C429      1.08014      .   S
    C3220  C3221     1.40563      .   S
    C4156  C4157     1.40669      .   S
    C4276  C4277     1.40674      .   S
    C3218  C3217     1.40239      .   S
    C2904  C2909     1.40547      .   S
    C1293  C1294     1.40319      .   S
    C4274  C4273     1.40165      .   S
    C3768  C3773     1.40612      .   S
    H495   C492      1.07896      .   S
    C4250  C4249     1.40217      .   S
    C1251  C1252     1.40770      .   S
    C1215  C1216     1.40562      .   S
    H419   C417      1.07945      .   S
    C1323  C1324     1.40548      .   S
    C4154  C4153     1.40204      .   S
    C1221  C1222     1.40377      .   S
    C1329  C1330     1.40584      .   S
    C1287  C1288     1.40274      .   S
    C1257  C1258     1.40731      .   S
    C1653  C1654     1.40132      .   S
    H440   C438      1.08177      .   S
    C1575  C1576     1.40687      .   S
    C1683  C1684     1.40240      .   S
    C1611  C1612     1.40668      .   S
    C1617  C1618     1.40058      .   S
    H180   C177      1.07967      .   S
    H243   C240      1.07973      .   S
    C3987  H4000     1.08126      .   S
    C3987  C3988     1.39831      .   S
    C1647  C1648     1.40930      .   S
    C1689  C1690     1.40438      .   S
    H264   C261      1.08036      .   S
    H348   C345      1.08001      .   S
    C1581  C1582     1.40636      .   S
    H188   C186      1.07949      .   S
    H411   C408      1.07999      .   S
    H251   C249      1.07948      .   S
    H503   C501      1.07961      .   S
    C3963  H3976     1.08132      .   S
    C3963  C3964     1.39850      .   S
    C3989  C3988     1.40648      .   S
    C3989  C430      1.48697      .   S
    C4179  H4192     1.08110      .   S
    C4179  C4180     1.39604      .   S
    H356   C354      1.07992      .   S
    C3195  H3208     1.08052      .   S
    C3195  C3196     1.39866      .   S
    C2523  H2536     1.08145      .   S
    C2523  C2524     1.39742      .   S
    C2739  H2752     1.08083      .   S
    C2739  C2740     1.39946      .   S
    C4181  C4180     1.40599      .   S
    C4181  C416      1.48432      .   S
    C3965  C3964     1.40995      .   S
    C3965  C493      1.41287      .   S
    C2547  H2560     1.08136      .   S
    C2547  C2548     1.40112      .   S
    H272   C270      1.08040      .   S
    C2715  H2728     1.08093      .   S
    C2715  C2716     1.40335      .   S
    C2931  H2944     1.08081      .   S
    C2931  C2932     1.39937      .   S
    H327   C324      1.08078      .   S
    C2525  C2524     1.40650      .   S
    C2525  C262      1.48747      .   S
    C2907  H2920     1.08087      .   S
    C2907  C2908     1.40147      .   S
    C2717  C2716     1.40564      .   S
    C2717  C178      1.48805      .   S
    C429   C430      1.38594      .   S
    C429   N428      1.34399      .   S
    C3771  H3784     1.08051      .   S
    C3771  C3772     1.40229      .   S
    C3197  C3196     1.40521      .   S
    C3197  C332      1.48544      .   S
    C2741  C2740     1.40585      .   S
    C2741  C241      1.48436      .   S
    C2549  C2548     1.40579      .   S
    C2549  C325      1.48718      .   S
    C2933  C2932     1.40641      .   S
    C2933  C185      1.48591      .   S
    H335   C333      1.08075      .   S
    C3988  H4001     1.08105      .   S
    C492   C493      1.38912      .   S
    C492   N491      1.34380      .   S
    C417   C416      1.38310      .   S
    C417   N413      1.34406      .   S
    C2909  C2908     1.40571      .   S
    C2909  C248      1.48493      .   S
    C3793  H3807     1.08361      .   S
    C3793  C3792     1.39430      .   S
    C3797  C3792     1.41091      .   S
    C3797  C346      1.41299      .   S
    C3773  C3772     1.40596      .   S
    C3773  C409      1.48296      .   S
    C177   C178      1.38220      .   S
    C177   N176      1.34082      .   S
    C240   C241      1.38340      .   S
    C240   N239      1.34198      .   S
    C3964  H3977     1.08128      .   S
    C4180  H4193     1.08064      .   S
    C261   C262      1.38782      .   S
    C261   N260      1.34499      .   S
    C430   C431      1.38802      .   S
    C438   C437      1.38068      .   S
    C438   N434      1.34562      .   S
    C3221  C3216     1.40631      .   S
    C3221  C269      1.48639      .   S
    C186   C185      1.38361      .   S
    C186   N182      1.34436      .   S
    C345   C346      1.39297      .   S
    C345   N344      1.34815      .   S
    C4253  C437      1.47568      .   S
    C4253  C4248     1.40322      .   S
    C249   C248      1.38080      .   S
    C249   N245      1.34222      .   S
    C3196  H3209     1.08184      .   S
    C3217  H3231     1.08324      .   S
    C3217  C3216     1.39714      .   S
    C408   C409      1.38195      .   S
    C408   N407      1.34059      .   S
    C4277  C500      1.48660      .   S
    C4277  C4272     1.40676      .   S
    C2524  H2537     1.08161      .   S
    C2740  H2753     1.08138      .   S
    C1294  H1295     1.08291      .   S
    C1294  C1376     1.40386      .   S
    C4157  C353      1.48712      .   S
    C4157  C4152     1.40658      .   S
    C4273  H4287     1.08375      .   S
    C4273  C4272     1.39784      .   S
    C501   C500      1.38661      .   S
    C501   N497      1.34559      .   S
    C1252  H1253     1.08346      .   S
    C1252  C1376     1.40632      .   S
    C2548  H2561     1.08192      .   S
    C493   C494      1.39234      .   S
    C2932  H2945     1.08143      .   S
    C354   C353      1.38805      .   S
    C354   N350      1.34933      .   S
    C416   C415      1.38705      .   S
    C2716  H2729     1.08135      .   S
    C2908  H2921     1.08191      .   S
    C1216  H1217     1.08287      .   S
    C1216  C1358     1.40511      .   S
    C1324  H1325     1.08319      .   S
    C1324  C1358     1.40468      .   S
    C1654  H1655     1.08370      .   S
    C1654  C1736     1.40265      .   S
    C324   C325      1.38578      .   S
    C324   N323      1.34283      .   S
    C1330  H1331     1.08356      .   S
    C1330  C1361     1.40464      .   S
    C3772  H3785     1.08176      .   S
    C1222  H1223     1.08360      .   S
    C1222  C1361     1.40260      .   S
    C1684  H1685     1.08363      .   S
    C1684  C1718     1.40157      .   S
    C1576  H1577     1.08353      .   S
    C1576  C1718     1.40461      .   S
    C1618  H1619     1.08352      .   S
    C1618  C1739     1.40187      .   S
    C1612  H1613     1.08357      .   S
    C1612  C1736     1.40456      .   S
    C1288  H1289     1.08335      .   S
    C1288  C1379     1.40197      .   S
    C4153  C4152     1.39532      .   S
    C4153  H4167     1.08428      .   S
    C1258  H1259     1.08303      .   S
    C1258  C1379     1.40503      .   S
    C262   C263      1.38734      .   S
    C270   C269      1.38662      .   S
    C270   N266      1.34658      .   S
    C1648  H1649     1.08345      .   S
    C1648  C1739     1.40659      .   S
    C333   C332      1.38540      .   S
    C333   N329      1.34492      .   S
    C178   C179      1.39166      .   S
    C241   C242      1.38883      .   S
    C4249  C4248     1.39952      .   S
    C4249  H4263     1.08251      .   S
    C1690  H1691     1.08322      .   S
    C1690  C1721     1.40479      .   S
    C332   C331      1.38707      .   S
    C1582  H1583     1.08356      .   S
    C1582  C1721     1.40700      .   S
    C325   C326      1.39086      .   S
    C185   C184      1.38752      .   S
    C3792  H3806     1.08006      .   S
    C346   C347      1.38785      .   S
    C248   C247      1.38981      .   S
    C409   C410      1.39043      .   S
    N428   N427      1.31263      .   S
    C437   C436      1.38317      .   S
    C3216  H3230     1.08083      .   S
    C269   C268      1.38534      .   S
    C500   C499      1.38589      .   S
    C353   C352      1.38410      .   S
    C4272  H4286     1.08042      .   S
    N413   N414      1.31769      .   S
    C1376  C2243     1.48495      .   S
    N491   N490      1.31319      .   S
    N239   N238      1.31199      .   S
    C4152  H4166     1.08115      .   S
    N176   N175      1.31416      .   S
    C1736  C2267     1.48147      .   S
    C1718  C3515     1.48168      .   S
    C1358  C3491     1.48438      .   S
    N434   N435      1.32017      .   S
    C1361  C3587     1.48301      .   S
    C1739  C2171     1.48141      .   S
    N407   N406      1.31348      .   S
    N182   N183      1.31760      .   S
    N245   N246      1.31863      .   S
    N344   N343      1.31330      .   S
    C1379  C2147     1.48247      .   S
    C4248  H4262     1.08244      .   S
    N260   N259      1.31232      .   S
    N497   N498      1.31831      .   S
    C1721  C3611     1.48575      .   S
    N350   N351      1.31977      .   S
    N329   N330      1.31865      .   S
    N323   N322      1.31432      .   S
    N266   N267      1.31856      .   S
    H2253  C2242     1.08260      .   S
    H2181  C2170     1.08326      .   S
    C331   H334      1.08086      .   S
    C331   N330      1.34638      .   S
    H3525  C3514     1.08334      .   S
    H2277  C2266     1.08329      .   S
    C431   N427      1.34725      .   S
    C431   H433      1.08025      .   S
    C415   N414      1.34640      .   S
    C415   H418      1.07992      .   S
    C494   N490      1.34764      .   S
    C494   H496      1.08047      .   S
    H3598  C3588     1.08291      .   S
    C326   N322      1.34886      .   S
    C326   H328      1.08091      .   S
    C263   N259      1.34642      .   S
    C263   H265      1.08044      .   S
    H2158  C2148     1.08285      .   S
    H3502  C3492     1.08382      .   S
    C242   N238      1.34915      .   S
    C242   H244      1.08102      .   S
    C179   N175      1.35157      .   S
    C179   H181      1.08106      .   S
    C184   N183      1.34805      .   S
    C184   H187      1.08016      .   S
    H3622  C3612     1.08293      .   S
    C347   N343      1.34278      .   S
    C347   H349      1.07780      .   S
    C247   N246      1.35004      .   S
    C247   H250      1.08078      .   S
    C410   N406      1.35073      .   S
    C410   H412      1.08128      .   S
    C268   N267      1.34542      .   S
    C268   H271      1.08019      .   S
    C499   N498      1.34622      .   S
    C499   H502      1.07967      .   S
    C352   N351      1.34429      .   S
    C352   H355      1.07953      .   S
    C436   N435      1.34818      .   S
    C436   H439      1.08237      .   S
    C2243  C2242     1.40539      .   S
    C2243  C2244     1.40477      .   S
    C2242  C2241     1.39580      .   S
    C3515  C3514     1.40404      .   S
    C3515  C3516     1.40376      .   S
    C2170  C2171     1.40576      .   S
    C2170  C2169     1.39483      .   S
    C2267  C2266     1.40434      .   S
    C2267  C2268     1.40309      .   S
    C2171  C2172     1.40252      .   S
    C3514  C3513     1.39488      .   S
    C2266  C2265     1.39503      .   S
    C3491  C3492     1.40463      .   S
    C3491  C3490     1.40414      .   S
    C3587  C3588     1.40387      .   S
    C3587  C3586     1.40463      .   S
    C2147  C2148     1.40275      .   S
    C2147  C2146     1.40438      .   S
    C3588  C3589     1.39744      .   S
    C3611  C3612     1.40408      .   S
    C3611  C3610     1.40495      .   S
    C3492  C3493     1.39787      .   S
    C2148  C2149     1.39764      .   S
    C3612  C3613     1.39835      .   S
    C2244  H2254     1.08279      .   S
    C2244  C2245     1.39995      .   S
    H3501  C3490     1.08326      .   S
    C2241  H2252     1.08330      .   S
    C2241  C2240     1.40240      .   S
    H3597  C3586     1.08261      .   S
    H2180  C2169     1.08369      .   S
    H2157  C2146     1.08306      .   S
    C3490  C3489     1.39844      .   S
    C3516  H3526     1.08279      .   S
    C3516  C3517     1.39913      .   S
    C2268  H2278     1.08326      .   S
    C2268  C2269     1.39807      .   S
    C2169  C2168     1.40283      .   S
    C3586  C3585     1.39735      .   S
    H3524  C3513     1.08387      .   S
    C3513  C3512     1.40318      .   S
    H2276  C2265     1.08338      .   S
    C2265  C2264     1.40248      .   S
    C2146  C2145     1.39739      .   S
    C2172  H2182     1.08329      .   S
    C2172  C2173     1.39959      .   S
    H3621  C3610     1.08317      .   S
    C3610  C3609     1.39837      .   S
    C3589  H3599     1.08018      .   S
    C3589  C3584     1.40943      .   S
    C2149  H2159     1.08030      .   S
    C2149  C2144     1.41035      .   S
    C3493  H3503     1.08025      .   S
    C3493  C3488     1.40923      .   S
    C3613  H3623     1.08070      .   S
    C3613  C3608     1.40934      .   S
    C2245  C2240     1.40982      .   S
    C2245  H2255     1.08092      .   S
    C2240  C2239     1.48535      .   S
    N315   N316      1.31404      .   S
    N315   C319      1.34356      .   S
    C3517  C3512     1.41032      .   S
    C3517  H3527     1.08036      .   S
    C2269  C2264     1.41029      .   S
    C2269  H2279     1.08085      .   S
    C3585  C3584     1.40378      .   S
    C3585  H3596     1.08331      .   S
    C3489  C3488     1.40420      .   S
    C3489  H3500     1.08309      .   S
    C3512  C3511     1.48471      .   S
    C2264  C2263     1.48336      .   S
    C2168  C2173     1.41088      .   S
    C2168  C2167     1.48512      .   S
    C2145  C2144     1.40383      .   S
    C2145  H2156     1.08357      .   S
    C2173  H2183     1.08106      .   S
    C3584  C3583     1.48508      .   S
    N316   C317      1.34784      .   S
    C3609  C3608     1.40390      .   S
    C3609  H3620     1.08355      .   S
    N399   N400      1.31453      .   S
    N399   C403      1.34240      .   S
    C2144  C2143     1.48612      .   S
    C3488  C3487     1.48563      .   S
    N400   C401      1.34963      .   S
    N168   N169      1.31460      .   S
    N168   C172      1.34342      .   S
    N232   N231      1.31441      .   S
    N232   C233      1.34512      .   S
    N169   C170      1.35071      .   S
    N421   N420      1.31338      .   S
    N421   C422      1.34700      .   S
    C3608  C3607     1.48679      .   S
    N231   C235      1.34713      .   S
    N484   N483      1.31282      .   S
    N484   C485      1.34835      .   S
    N252   N253      1.31250      .   S
    N252   C256      1.34471      .   S
    N253   C254      1.34663      .   S
    N420   C424      1.34521      .   S
    N337   N336      1.31320      .   S
    N337   C338      1.34449      .   S
    N483   C487      1.34292      .   S
    N336   C340      1.34688      .   S
    C319   H321      1.08080      .   S
    C319   C318      1.38595      .   S
    C2239  H2251     1.08122      .   S
    C2239  C2238     1.34077      .   S
    C403   H405      1.07954      .   S
    C403   C402      1.38493      .   S
    H3594  C3582     1.08085      .   S
    H2154  C2142     1.08105      .   S
    C3511  H3523     1.08244      .   S
    C3511  C3510     1.34131      .   S
    C2263  H2275     1.08202      .   S
    C2263  C2262     1.34047      .   S
    H2179  C2167     1.08234      .   S
    C2167  C2166     1.33980      .   S
    C172   H174      1.07986      .   S
    C172   C171      1.38492      .   S
    C422   H425      1.07999      .   S
    C422   C423      1.38752      .   S
    C170   H173      1.08050      .   S
    C170   C171      1.39149      .   S
    C401   H404      1.08101      .   S
    C401   C402      1.39026      .   S
    C233   H236      1.07996      .   S
    C233   C234      1.38657      .   S
    C317   H320      1.08063      .   S
    C317   C318      1.38983      .   S
    H3498  C3486     1.08155      .   S
    C3583  C3582     1.34129      .   S
    C3583  H3595     1.08237      .   S
    C485   H488      1.08021      .   S
    C485   C486      1.39249      .   S
    C256   H258      1.07997      .   S
    C256   C255      1.38612      .   S
    C235   H237      1.08021      .   S
    C235   C234      1.38854      .   S
    C2143  C2142     1.34206      .   S
    C2143  H2155     1.08156      .   S
    C254   H257      1.07965      .   S
    C254   C255      1.38777      .   S
    H3618  C3606     1.08168      .   S
    C3487  C3486     1.34280      .   S
    C3487  H3499     1.08179      .   S
    C338   H341      1.07826      .   S
    C338   C339      1.38539      .   S
    C424   H426      1.07989      .   S
    C424   C423      1.38787      .   S
    C487   H489      1.07867      .   S
    C487   C486      1.38935      .   S
    C3607  C3606     1.34235      .   S
    C3607  H3619     1.08162      .   S
    C340   H342      1.07990      .   S
    C340   C339      1.38675      .   S
    C3582  C3578     1.48382      .   S
    C2142  C2138     1.48387      .   S
    C318   C2309     1.48684      .   S
    C3486  C3482     1.48560      .   S
    C402   C3365     1.48770      .   S
    C171   C2477     1.48993      .   S
    C3606  C3602     1.48574      .   S
    H2250  C2238     1.08156      .   S
    C234   C2405     1.48841      .   S
    C423   C3341     1.48845      .   S
    C2238  C2234     1.48445      .   S
    C255   C2381     1.48555      .   S
    H2274  C2262     1.08144      .   S
    C486   C3269     1.41312      .   S
    H3522  C3510     1.08045      .   S
    H2178  C2166     1.08146      .   S
    C339   C3437     1.48569      .   S
    C2262  C2258     1.48277      .   S
    C3510  C3506     1.48342      .   S
    C2166  C2162     1.48381      .   S
    C3578  C3577     1.40100      .   S
    C3578  C3579     1.40827      .   S
    H3374  C3360     1.08082      .   S
    H2151  C2137     1.08359      .   S
    H2486  C2472     1.08096      .   S
    C2138  C2137     1.40080      .   S
    C2138  C2139     1.40960      .   S
    C3365  C3360     1.40733      .   S
    C3365  C3364     1.40629      .   S
    H3591  C3577     1.08353      .   S
    C3482  C3483     1.40755      .   S
    C3482  C3481     1.40226      .   S
    C2477  C2472     1.40666      .   S
    C2477  C2476     1.40689      .   S
    C2309  C2304     1.40648      .   S
    C2309  C2308     1.40628      .   S
    H3592  C3579     1.08114      .   S
    C3602  C3601     1.40185      .   S
    C3602  C3603     1.40873      .   S
    H3350  C3336     1.08101      .   S
    H3496  C3483     1.08125      .   S
    C3341  C3336     1.40688      .   S
    C3341  C3340     1.40677      .   S
    H2318  C2304     1.08097      .   S
    C2234  C2235     1.40720      .   S
    C2234  C2233     1.40019      .   S
    C2405  C2404     1.40663      .   S
    C2405  C2400     1.40676      .   S
    C3269  C3264     1.41081      .   S
    C3269  C3268     1.41073      .   S
    H3495  C3481     1.08324      .   S
    C2381  C2376     1.40692      .   S
    C2381  C2380     1.40665      .   S
    H2152  C2139     1.08091      .   S
    H3615  C3601     1.08263      .   S
    H2176  C2163     1.08092      .   S
    H2321  C2308     1.08152      .   S
    H3520  C3507     1.08162      .   S
    H3278  C3264     1.08013      .   S
    H3616  C3603     1.08068      .   S
    H2390  C2376     1.08113      .   S
    H2248  C2235     1.08178      .   S
    C2258  C2259     1.40892      .   S
    C2258  C2257     1.40068      .   S
    H2272  C2259     1.08085      .   S
    C3506  C3507     1.40826      .   S
    C3506  C3505     1.40162      .   S
    C2162  C2163     1.40902      .   S
    C2162  C2161     1.39821      .   S
    C3437  C3432     1.40579      .   S
    C3437  C3436     1.40645      .   S
    H2417  C2404     1.08148      .   S
    H3377  C3364     1.08099      .   S
    H2414  C2400     1.08119      .   S
    H2247  C2233     1.08325      .   S
    C2137  C2136     1.39379      .   S
    C3360  C3361     1.39558      .   S
    C3577  C3576     1.39482      .   S
    C2472  C2473     1.39729      .   S
    H2489  C2476     1.08140      .   S
    C3579  C3580     1.39953      .   S
    H3353  C3340     1.08142      .   S
    H2393  C2380     1.08063      .   S
    H3446  C3432     1.08058      .   S
    H3281  C3268     1.08070      .   S
    H3449  C3436     1.08086      .   S
    C2139  C2140     1.40134      .   S
    C3483  C3484     1.39832      .   S
    C3336  C3337     1.39820      .   S
    C2304  C2305     1.39706      .   S
    C3481  C3480     1.39774      .   S
    H2271  C2257     1.08391      .   S
    C2308  C2307     1.40001      .   S
    C3601  C3600     1.39548      .   S
    C3364  C3363     1.40032      .   S
    C3603  C3604     1.40190      .   S
    C2235  C2236     1.40040      .   S
    H3519  C3505     1.08354      .   S
    C3264  C3265     1.39951      .   S
    C2376  C2377     1.39777      .   S
    C2476  C2475     1.40225      .   S
    C3507  C3508     1.39938      .   S
    C2163  C2164     1.40192      .   S
    H2175  C2161     1.08341      .   S
    C2259  C2260     1.39879      .   S
    C2404  C2403     1.39932      .   S
    C2400  C2401     1.39698      .   S
    C2233  C2232     1.39471      .   S
    C3340  C3339     1.39774      .   S
    C2380  C2379     1.39696      .   S
    C3268  C3267     1.39621      .   S
    C3432  C3433     1.39585      .   S
    C3436  C3435     1.39757      .   S
    C2257  C2256     1.39427      .   S
    C3505  C3504     1.39541      .   S
    C2161  C2160     1.39269      .   S
    C3361  H3375     1.08376      .   S
    C3361  C3362     1.40078      .   S
    C2136  H2150     1.08121      .   S
    C2136  C2141     1.40594      .   S
    C2473  H2487     1.08325      .   S
    C2473  C2474     1.40184      .   S
    C3576  H3590     1.08082      .   S
    C3576  C3581     1.40674      .   S
    C3580  H3593     1.08200      .   S
    C3580  C3581     1.40653      .   S
    C3337  H3351     1.08358      .   S
    C3337  C3338     1.40315      .   S
    C2140  H2153     1.08192      .   S
    C2140  C2141     1.40553      .   S
    C3484  H3497     1.08099      .   S
    C3484  C3485     1.40678      .   S
    C2305  H2319     1.08299      .   S
    C2305  C2306     1.40255      .   S
    C3363  C3362     1.40884      .   S
    C3363  H3376     1.08132      .   S
    C3480  H3494     1.08097      .   S
    C3480  C3485     1.40643      .   S
    C3600  H3614     1.08034      .   S
    C3600  C3605     1.40691      .   S
    C2236  H2249     1.08127      .   S
    C2236  C2237     1.41085      .   S
    C2307  H2320     1.08152      .   S
    C2307  C2306     1.40842      .   S
    C3508  H3521     1.08192      .   S
    C3508  C3509     1.40478      .   S
    C3604  H3617     1.08110      .   S
    C3604  C3605     1.40679      .   S
    C2475  C2474     1.40969      .   S
    C2475  H2488     1.08094      .   S
    C2260  H2273     1.08117      .   S
    C2260  C2261     1.40621      .   S
    C2164  H2177     1.08131      .   S
    C2164  C2165     1.41034      .   S
    C3265  H3279     1.08314      .   S
    C3265  C3266     1.40219      .   S
    C2377  H2391     1.08337      .   S
    C2377  C2378     1.40209      .   S
    C2232  H2246     1.07995      .   S
    C2232  C2237     1.41131      .   S
    C3339  H3352     1.08081      .   S
    C3339  C3338     1.40754      .   S
    C2403  H2416     1.08068      .   S
    C2403  C2402     1.40843      .   S
    C2401  H2415     1.08336      .   S
    C2401  C2402     1.40225      .   S
    C3267  H3280     1.08127      .   S
    C3267  C3266     1.40478      .   S
    C2379  H2392     1.08144      .   S
    C2379  C2378     1.40711      .   S
    C2256  C2261     1.40739      .   S
    C2256  H2270     1.08046      .   S
    C3433  H3447     1.08382      .   S
    C3433  C3434     1.40220      .   S
    C3435  H3448     1.08203      .   S
    C3435  C3434     1.40710      .   S
    C3504  C3509     1.40687      .   S
    C3504  H3518     1.08118      .   S
    C2160  C2165     1.41135      .   S
    C2160  H2174     1.07935      .   S
    C3581  C549      1.48485      .   S
    C3362  C3366     1.48518      .   S
    C2141  C129      1.48582      .   S
    C2474  C2478     1.48840      .   S
    C3485  C633      1.48910      .   S
    C3338  C3342     1.48649      .   S
    C2306  C2310     1.48572      .   S
    C3605  C528      1.48927      .   S
    C2237  C49       1.41363      .   S
    C3509  C612      1.48312      .   S
    C3266  C3270     1.48399      .   S
    C2402  C2406     1.48598      .   S
    C2378  C2382     1.48288      .   S
    C2261  C18       1.48470      .   S
    C2165  C108      1.41345      .   S
    C3434  C3438     1.48154      .   S
    C3366  H3378     1.08088      .   S
    C3366  C3367     1.34098      .   S
    C549   C548      1.38938      .   S
    C549   C550      1.38446      .   S
    H2323  C2311     1.08185      .   S
    C2478  H2490     1.08068      .   S
    C2478  C2479     1.34279      .   S
    C129   C130      1.39017      .   S
    C129   C128      1.38289      .   S
    C3342  H3354     1.08082      .   S
    C3342  C3343     1.34264      .   S
    H2395  C2383     1.08258      .   S
    H3283  C3271     1.08167      .   S
    C49    C50       1.39359      .   S
    C49    C48       1.38831      .   S
    H2419  C2407     1.08117      .   S
    C633   C632      1.38794      .   S
    C633   C634      1.38681      .   S
    C2310  C2311     1.34217      .   S
    C2310  H2322     1.08096      .   S
    C612   C611      1.38421      .   S
    C612   C613      1.38915      .   S
    C528   C529      1.39072      .   S
    C528   C527      1.38523      .   S
    H3451  C3439     1.08136      .   S
    C18    C17       1.38461      .   S
    C18    C19       1.38995      .   S
    C108   C107      1.39587      .   S
    C108   C109      1.38532      .   S
    C3270  C3271     1.34327      .   S
    C3270  H3282     1.08146      .   S
    H551   C548      1.08008      .   S
    C2382  C2383     1.34232      .   S
    C2382  H2394     1.08170      .   S
    C2406  C2407     1.34324      .   S
    C2406  H2418     1.08096      .   S
    C3438  C3439     1.34192      .   S
    C3438  H3450     1.08085      .   S
    H614   C611      1.08055      .   S
    H132   C130      1.08131      .   S
    H110   C107      1.08101      .   S
    H131   C128      1.08073      .   S
    H52    C50       1.07987      .   S
    H635   C632      1.07998      .   S
    C2311  C2312     1.48721      .   S
    C548   N547      1.34945      .   S
    H552   C550      1.07985      .   S
    H51    C48       1.07789      .   S
    H20    C17       1.07943      .   S
    H531   C529      1.08059      .   S
    H636   C634      1.08042      .   S
    H530   C527      1.07937      .   S
    C3271  C3272     1.48408      .   S
    C2383  C2384     1.48318      .   S
    C130   N126      1.34889      .   S
    C2407  C2408     1.48713      .   S
    H37    C19       1.08026      .   S
    C611   N610      1.34335      .   S
    C128   N127      1.34319      .   S
    C550   N546      1.34271      .   S
    C50    N46       1.34865      .   S
    H615   C613      1.08105      .   S
    C48    N47       1.34364      .   S
    C107   N106      1.35103      .   S
    C632   N631      1.34644      .   S
    C3439  C3440     1.48277      .   S
    C634   N630      1.34536      .   S
    C17    N16       1.34367      .   S
    C529   N525      1.34877      .   S
    C527   N526      1.34396      .   S
    H111   C109      1.07915      .   S
    H3379  C3367     1.08155      .   S
    C3367  C3368     1.48532      .   S
    C613   N609      1.34744      .   S
    C19    N15       1.34734      .   S
    H2491  C2479     1.08196      .   S
    H3355  C3343     1.08135      .   S
    C2479  C2480     1.48907      .   S
    C3343  C3344     1.48608      .   S
    C109   N105      1.33965      .   S
    H2324  C2313     1.08332      .   S
    H3383  C3373     1.08026      .   S
    H2396  C2385     1.08334      .   S
    H3284  C3273     1.08322      .   S
    H2420  C2409     1.08348      .   S
    H3359  C3349     1.08092      .   S
    H3452  C3441     1.08379      .   S
    H2495  C2485     1.08078      .   S
    N547   N546      1.31219      .   S
    N610   N609      1.31404      .   S
    N126   N127      1.31325      .   S
    N46    N47       1.31274      .   S
    C2312  C2313     1.40381      .   S
    C2312  C2317     1.41013      .   S
    N106   N105      1.31180      .   S
    N16    N15       1.31355      .   S
    N631   N630      1.31364      .   S
    C3272  C3273     1.40467      .   S
    C3272  C3277     1.40799      .   S
    N525   N526      1.31380      .   S
    C2384  C2385     1.40375      .   S
    C2384  C2389     1.40818      .   S
    C2313  C2314     1.39737      .   S
    C2408  C2409     1.40377      .   S
    C2408  C2413     1.40992      .   S
    C3440  C3441     1.40369      .   S
    C3440  C3445     1.40895      .   S
    C2385  C2386     1.39712      .   S
    C3273  C3274     1.39750      .   S
    C3373  C3368     1.41046      .   S
    C3373  C3372     1.40004      .   S
    C3368  C3369     1.40298      .   S
    C2409  C2410     1.39804      .   S
    C3441  C3442     1.39644      .   S
    C3344  C3349     1.41038      .   S
    C3344  C3345     1.40294      .   S
    C3349  C3348     1.39991      .   S
    C2480  C2485     1.41092      .   S
    C2480  C2481     1.40384      .   S
    C2485  C2484     1.40191      .   S
    H2327  C2317     1.08058      .   S
    C2317  C2316     1.39903      .   S
    H3287  C3277     1.08093      .   S
    H2423  C2413     1.08067      .   S
    H2399  C2389     1.08071      .   S
    C3277  C3276     1.39697      .   S
    C2413  C2412     1.39909      .   S
    C2389  C2388     1.39656      .   S
    C2314  H2325     1.08281      .   S
    C2314  C2315     1.40497      .   S
    H3455  C3445     1.08056      .   S
    C3445  C3444     1.39613      .   S
    H3382  C3372     1.08281      .   S
    C3274  H3285     1.08329      .   S
    C3274  C3275     1.40446      .   S
    C2386  H2397     1.08303      .   S
    C2386  C2387     1.40428      .   S
    C3372  C3371     1.40386      .   S
    C3369  H3380     1.08375      .   S
    C3369  C3370     1.39501      .   S
    C2410  H2421     1.08292      .   S
    C2410  C2411     1.40462      .   S
    H3358  C3348     1.08296      .   S
    C3345  H3356     1.08342      .   S
    C3345  C3346     1.39565      .   S
    C3348  C3347     1.40501      .   S
    C3442  H3453     1.08300      .   S
    C3442  C3443     1.40373      .   S
    C2481  H2492     1.08318      .   S
    C2481  C2482     1.39684      .   S
    H2494  C2484     1.08337      .   S
    C2484  C2483     1.40358      .   S
    H622   C620      1.08118      .   S
    H559   C557      1.07958      .   S
    C2316  C2315     1.40506      .   S
    C2316  H2326     1.08277      .   S
    H139   C137      1.08058      .   S
    H6     C4        1.08038      .   S
    H643   C641      1.07958      .   S
    C2315  C1001     1.48530      .   S
    H57    C55       1.07924      .   S
    C3276  C3275     1.40576      .   S
    C3276  H3286     1.08323      .   S
    C2412  C2411     1.40402      .   S
    C2412  H2422     1.08317      .   S
    C2388  C2387     1.40468      .   S
    C2388  H2398     1.08303      .   S
    H538   C536      1.07974      .   S
    H63    C60       1.07964      .   S
    C3444  C3443     1.40307      .   S
    C3444  H3454     1.08287      .   S
    H145   C142      1.08075      .   S
    C3275  C1016     1.48430      .   S
    C2387  C1916     1.48385      .   S
    H118   C116      1.08071      .   S
    C2411  C998      1.48542      .   S
    C3371  C3370     1.40503      .   S
    C3371  C1019     1.48405      .   S
    C3370  H3381     1.08334      .   S
    C3443  C1898     1.48062      .   S
    H12    C9        1.08009      .   S
    C3346  C3347     1.40505      .   S
    C3346  H3357     1.08268      .   S
    H628   C625      1.07994      .   S
    N553   C557      1.34594      .   S
    N553   N554      1.31411      .   S
    H544   C541      1.07994      .   S
    H565   C562      1.08046      .   S
    C3347  C1901     1.48498      .   S
    N616   C620      1.34396      .   S
    N616   N617      1.31257      .   S
    C2482  C2483     1.40572      .   S
    C2482  H2493     1.08266      .   S
    H649   C646      1.07915      .   S
    C2483  C1919     1.48753      .   S
    N133   C137      1.34472      .   S
    N133   N134      1.31218      .   S
    H124   C121      1.07932      .   S
    C557   C556      1.38697      .   S
    N0     C4        1.34391      .   S
    N0     N1        1.31314      .   S
    N112   C116      1.34939      .   S
    N112   N113      1.31432      .   S
    N53    C55       1.34514      .   S
    N53    N54       1.31222      .   S
    N59    C60       1.34933      .   S
    N59    N58       1.31896      .   S
    C620   C619      1.38645      .   S
    N637   C641      1.34718      .   S
    N637   N638      1.31307      .   S
    N141   C142      1.34935      .   S
    N141   N140      1.32024      .   S
    H3854  C3840     1.08040      .   S
    N532   C536      1.34584      .   S
    N532   N533      1.31290      .   S
    C137   C136      1.38531      .   S
    N561   C562      1.34359      .   S
    N561   N560      1.31923      .   S
    N120   C121      1.34341      .   S
    N120   N119      1.31676      .   S
    N8     C9        1.34786      .   S
    N8     N7        1.32025      .   S
    C4     C3        1.38565      .   S
    N624   C625      1.34727      .   S
    N624   N623      1.31913      .   S
    C641   C640      1.39084      .   S
    N540   C541      1.34874      .   S
    N540   N539      1.32082      .   S
    C55    C22       1.38552      .   S
    N645   C646      1.34676      .   S
    N645   N644      1.31931      .   S
    C60    C61       1.38885      .   S
    C536   C535      1.38507      .   S
    C116   C115      1.39103      .   S
    H3926  C3912     1.08033      .   S
    C142   C143      1.38863      .   S
    H3662  C3648     1.08029      .   S
    H2870  C2856     1.08097      .   S
    H2678  C2664     1.08075      .   S
    H3734  C3720     1.08087      .   S
    C9     C10       1.38796      .   S
    C562   C563      1.37980      .   S
    C625   C626      1.38883      .   S
    C541   C542      1.38816      .   S
    H2606  C2592     1.08082      .   S
    C121   C122      1.38229      .   S
    C646   C647      1.38671      .   S
    H2801  C2788     1.08141      .   S
    H2993  C2980     1.08100      .   S
    C1001  C862      1.40459      .   S
    C1001  C970      1.40689      .   S
    N554   C555      1.34669      .   S
    H4337  C4324     1.08103      .   S
    N113   C114      1.34287      .   S
    H3065  C3052     1.08136      .   S
    N119   C123      1.34836      .   S
    N134   C135      1.34597      .   S
    N54    C21       1.34630      .   S
    N58    C62       1.34462      .   S
    C1016  C892      1.40407      .   S
    C1016  C934      1.40603      .   S
    N617   C618      1.34490      .   S
    H3089  C3076     1.08123      .   S
    H863   C862      1.08288      .   S
    N1     C2        1.34572      .   S
    C1019  C928      1.40575      .   S
    C1019  C898      1.40268      .   S
    N140   C144      1.34448      .   S
    C1916  C1828     1.40418      .   S
    C1916  C1792     1.40485      .   S
    H971   C970      1.08312      .   S
    C998   C856      1.40576      .   S
    C998   C964      1.40438      .   S
    H3855  C3841     1.08322      .   S
    N638   C639      1.34530      .   S
    H4409  C4396     1.08058      .   S
    C1901  C1762     1.40562      .   S
    C1901  C1864     1.40576      .   S
    C3840  C3841     1.39804      .   S
    C3840  C3845     1.40668      .   S
    N560   C564      1.34978      .   S
    N533   C534      1.34712      .   S
    H4049  C4036     1.08124      .   S
    C1898  C1756     1.40444      .   S
    C1898  C1870     1.40304      .   S
    H929   C928      1.08320      .   S
    H893   C892      1.08355      .   S
    N7     C11       1.34487      .   S
    H1829  C1828     1.08332      .   S
    N623   C627      1.34448      .   S
    N539   C543      1.34593      .   S
    H935   C934      1.08306      .   S
    C1919  C1834     1.40817      .   S
    C1919  C1798     1.40476      .   S
    H857   C856      1.08290      .   S
    H1763  C1762     1.08333      .   S
    C556   C555      1.38855      .   S
    C556   C3845     1.48987      .   S
    H965   C964      1.08323      .   S
    N644   C648      1.34722      .   S
    H1757  C1756     1.08339      .   S
    H899   C898      1.08335      .   S
    H1793  C1792     1.08394      .   S
    H1865  C1864     1.08315      .   S
    H3927  C3913     1.08374      .   S
    H1871  C1870     1.08358      .   S
    C3648  C3649     1.39874      .   S
    C3648  C3653     1.41068      .   S
    H1835  C1834     1.08309      .   S
    C3912  C3913     1.39616      .   S
    C3912  C3917     1.40674      .   S
    C2856  C2857     1.39570      .   S
    C2856  C2861     1.40646      .   S
    C136   C135      1.38812      .   S
    C136   C2861     1.48513      .   S
    H3663  C3649     1.08380      .   S
    H1799  C1798     1.08363      .   S
    H3158  C3144     1.08110      .   S
    C619   C618      1.38749      .   S
    C619   C3725     1.48277      .   S
    C3720  C3721     1.39700      .   S
    C3720  C3725     1.40701      .   S
    C3     C2        1.38759      .   S
    C3     C2597     1.48471      .   S
    C640   C639      1.39093      .   S
    C640   C3653     1.41344      .   S
    C2592  C2593     1.39493      .   S
    C2592  C2597     1.40664      .   S
    C2664  C2665     1.39614      .   S
    C2664  C2669     1.40685      .   S
    C22    C21       1.38729      .   S
    C22    C2669     1.48647      .   S
    H2871  C2857     1.08284      .   S
    C535   C534      1.38948      .   S
    C535   C3917     1.48791      .   S
    C61    C62       1.38471      .   S
    C61    C2981     1.48893      .   S
    C115   C114      1.38596      .   S
    C115   C2789     1.48953      .   S
    H3735  C3721     1.08380      .   S
    H2607  C2593     1.08363      .   S
    H2679  C2665     1.08350      .   S
    C862   C861      1.40390      .   S
    C970   C969      1.40766      .   S
    C143   C144      1.38388      .   S
    C143   C3077     1.48643      .   S
    H4118  C4104     1.08241      .   S
    C122   C123      1.38801      .   S
    C122   C3149     1.48396      .   S
    C928   C927      1.40757      .   S
    C892   C891      1.40365      .   S
    C10    C11       1.38499      .   S
    C10    C3053     1.48670      .   S
    C934   C933      1.40604      .   S
    C3841  C3842     1.40302      .   S
    C1828  C1827     1.40429      .   S
    C563   C564      1.38690      .   S
    C563   C4109     1.48132      .   S
    C542   C543      1.38612      .   S
    C542   C4037     1.49032      .   S
    C1762  C1761     1.40674      .   S
    C2980  C2981     1.40691      .   S
    C2980  C2979     1.40097      .   S
    C626   C627      1.38521      .   S
    C626   C4325     1.48742      .   S
    C2788  C2789     1.40649      .   S
    C2788  C2787     1.40156      .   S
    C856   C855      1.40647      .   S
    C898   C897      1.40235      .   S
    C964   C963      1.40468      .   S
    C1792  C1791     1.40429      .   S
    C1864  C1863     1.40366      .   S
    C1756  C1755     1.40426      .   S
    C555   H558      1.08039      .   S
    C1870  C1869     1.40326      .   S
    C647   C648      1.38721      .   S
    C647   C4397     1.48957      .   S
    C1834  C1833     1.40963      .   S
    C3845  C3844     1.40652      .   S
    C1798  C1797     1.40258      .   S
    C3052  C3053     1.40687      .   S
    C3052  C3051     1.39894      .   S
    C114   H117      1.07995      .   S
    C135   H138      1.08061      .   S
    C3076  C3077     1.40669      .   S
    C3076  C3075     1.40063      .   S
    C123   H125      1.08119      .   S
    C4324  C4325     1.40597      .   S
    C4324  C4323     1.39887      .   S
    C21    H56       1.08063      .   S
    C62    H64       1.07987      .   S
    C3649  C3650     1.40170      .   S
    C3913  C3914     1.40284      .   S
    C2     H5        1.08044      .   S
    C2857  C2858     1.40151      .   S
    H2800  C2787     1.08069      .   S
    C639   H642      1.07976      .   S
    H2992  C2979     1.08093      .   S
    C4036  C4037     1.40667      .   S
    C4036  C4035     1.40144      .   S
    C618   H621      1.08090      .   S
    C144   H146      1.07978      .   S
    C2861  C2860     1.40634      .   S
    C534   H537      1.08024      .   S
    C3653  C3652     1.41100      .   S
    C2593  C2594     1.40160      .   S
    C3721  C3722     1.40146      .   S
    C4396  C4397     1.40704      .   S
    C4396  C4395     1.39896      .   S
    C2597  C2596     1.40579      .   S
    C3725  C3724     1.40505      .   S
    C2665  C2666     1.40125      .   S
    C11    H13       1.07958      .   S
    H3064  C3051     1.08098      .   S
    C564   H566      1.08086      .   S
    C3917  C3916     1.40711      .   S
    C3144  C3149     1.40661      .   S
    C3144  C3145     1.39434      .   S
    C2669  C2668     1.40653      .   S
    C543   H545      1.07987      .   S
    C627   H629      1.07877      .   S
    H4336  C4323     1.08071      .   S
    C2981  C2976     1.40643      .   S
    H3088  C3075     1.08088      .   S
    C648   H650      1.07990      .   S
    C4104  C4109     1.40532      .   S
    C4104  C4105     1.39479      .   S
    C2789  C2784     1.40775      .   S
    H4048  C4035     1.08033      .   S
    C3077  C3072     1.40646      .   S
    H4408  C4395     1.08115      .   S
    C3149  C3148     1.40560      .   S
    C3053  C3048     1.40697      .   S
    C2979  C2978     1.40825      .   S
    C4037  C4032     1.40655      .   S
    C2787  C2786     1.40858      .   S
    C4109  C4108     1.40499      .   S
    C4325  C4320     1.40724      .   S
    C3051  C3050     1.40827      .   S
    H3159  C3145     1.08374      .   S
    C4397  C4392     1.40695      .   S
    C3075  C3074     1.40869      .   S
    C4323  C4322     1.40817      .   S
    C4035  C4034     1.40946      .   S
    H4119  C4105     1.08365      .   S
    C4395  C4394     1.40772      .   S
    C3145  C3146     1.40032      .   S
    H3858  C3846     1.08098      .   S
    C861   C999      1.40403      .   S
    C861   C860      1.48142      .   S
    C969   C999      1.40585      .   S
    C969   C968      1.48350      .   S
    C4105  C4106     1.40104      .   S
    H4340  C4329     1.08325      .   S
    C927   C1017     1.40655      .   S
    C927   C926      1.48317      .   S
    H4339  C4327     1.08197      .   S
    C891   C1014     1.40530      .   S
    C891   C890      1.48160      .   S
    C1761  C1899     1.40526      .   S
    C1761  C1760     1.48213      .   S
    C933   C1014     1.40589      .   S
    C933   C932      1.48324      .   S
    C897   C1017     1.40415      .   S
    C897   C896      1.48033      .   S
    C1827  C1914     1.40569      .   S
    C1827  C1826     1.48009      .   S
    C3842  C3846     1.48624      .   S
    C3842  C3843     1.40818      .   S
    H2874  C2862     1.08229      .   S
    H3930  C3918     1.08160      .   S
    C1863  C1899     1.40339      .   S
    C1863  C1862     1.48170      .   S
    C855   C996      1.40573      .   S
    C855   C854      1.48281      .   S
    C963   C996      1.40464      .   S
    C963   C962      1.48244      .   S
    O859   C860      1.27059      .   S
    C1791  C1914     1.40457      .   S
    C1791  C1790     1.48086      .   S
    O925   C926      1.27025      .   S
    C1833  C1917     1.40643      .   S
    C1833  C1832     1.48680      .   S
    C1755  C1896     1.40459      .   S
    C1755  C1754     1.48039      .   S
    H2610  C2598     1.08170      .   S
    O967   C968      1.27126      .   S
    C1797  C1917     1.40475      .   S
    C1797  C1796     1.48248      .   S
    C1869  C1896     1.40481      .   S
    C1869  C1868     1.47913      .   S
    O889   C890      1.27156      .   S
    C3844  C3843     1.39977      .   S
    C3844  H3857     1.08170      .   S
    O1759  C1760     1.27028      .   S
    C2858  C2862     1.48095      .   S
    C2858  C2859     1.40688      .   S
    C3650  C3654     1.48558      .   S
    C3650  C3651     1.40641      .   S
    O1825  C1826     1.27165      .   S
    C2860  H2873     1.08073      .   S
    C2860  C2859     1.39777      .   S
    C3914  C3918     1.48496      .   S
    C3914  C3915     1.40823      .   S
    C2594  C2598     1.48022      .   S
    C2594  C2595     1.40655      .   S
    O931   C932      1.27140      .   S
    O895   C896      1.27013      .   S
    O853   C854      1.27038      .   S
    C2596  H2609     1.08170      .   S
    C2596  C2595     1.39762      .   S
    O961   C962      1.27074      .   S
    C3652  H3665     1.07985      .   S
    C3652  C3651     1.39725      .   S
    C3148  H3161     1.08181      .   S
    C3148  C3147     1.39938      .   S
    C3722  C3726     1.48136      .   S
    C3722  C3723     1.40707      .   S
    O1861  C1862     1.26988      .   S
    O1831  C1832     1.27114      .   S
    O1753  C1754     1.27076      .   S
    C2976  H2990     1.08048      .   S
    C2976  C2977     1.39659      .   S
    C4108  H4121     1.08231      .   S
    C4108  C4107     1.40059      .   S
    C3724  H3737     1.08179      .   S
    C3724  C3723     1.39627      .   S
    O1795  C1796     1.27132      .   S
    O1789  C1790     1.26981      .   S
    C2666  C2670     1.48212      .   S
    C2666  C2667     1.40707      .   S
    C3072  H3086     1.08091      .   S
    C3072  C3073     1.39511      .   S
    O1867  C1868     1.27178      .   S
    C3916  C3915     1.39912      .   S
    C3916  H3929     1.08099      .   S
    H3666  C3654     1.08179      .   S
    C2668  H2681     1.08082      .   S
    C2668  C2667     1.39785      .   S
    H3863  C3853     1.08043      .   S
    C2784  H2798     1.08062      .   S
    C2784  C2785     1.39572      .   S
    C999   H1000     1.08289      .   S
    C4032  H4046     1.08087      .   S
    C4032  C4033     1.39737      .   S
    C2978  C2977     1.40207      .   S
    C2978  C2982     1.48565      .   S
    C3846  C3847     1.34388      .   S
    C1017  H1018     1.08276      .   S
    C3048  H3062     1.08035      .   S
    C3048  C3049     1.39632      .   S
    H3738  C3726     1.08164      .   S
    C860   O858      1.27043      .   S
    H2879  C2869     1.08117      .   S
    C1014  H1015     1.08297      .   S
    C1899  H1900     1.08304      .   S
    C926   O924      1.27157      .   S
    C968   O966      1.27069      .   S
    H2682  C2670     1.08147      .   S
    H3935  C3925     1.08069      .   S
    C2786  C2785     1.40239      .   S
    C2786  C2790     1.48601      .   S
    H2615  C2605     1.08114      .   S
    C996   H997      1.08314      .   S
    C3146  C3147     1.40807      .   S
    C3146  C3150     1.48019      .   S
    C1914  H1915     1.08342      .   S
    H2803  C2791     1.08161      .   S
    C890   O888      1.26961      .   S
    C1760  O1758     1.27073      .   S
    C3074  C3073     1.40242      .   S
    C3074  C3078     1.48492      .   S
    C1917  H1918     1.08310      .   S
    H2995  C2983     1.08156      .   S
    C1826  O1824     1.26891      .   S
    C4320  H4334     1.08046      .   S
    C4320  C4321     1.39622      .   S
    C1896  H1897     1.08286      .   S
    C3843  H3856     1.08104      .   S
    C3050  C3049     1.40146      .   S
    C3050  C3054     1.48426      .   S
    C2862  C2863     1.34056      .   S
    C932   O930      1.27004      .   S
    C4034  C4033     1.40335      .   S
    C4034  C4038     1.48843      .   S
    C4106  C4107     1.40829      .   S
    C4106  C4110     1.48066      .   S
    C896   O894      1.27015      .   S
    C3654  C3655     1.34262      .   S
    C4392  H4406     1.08101      .   S
    C4392  C4393     1.39839      .   S
    C854   O852      1.27185      .   S
    C3918  C3919     1.34247      .   S
    C1862  O1860     1.27031      .   S
    C2859  H2872     1.08092      .   S
    C962   O960      1.27017      .   S
    H3067  C3055     1.08114      .   S
    C2598  C2599     1.34092      .   S
    C1832  O1830     1.27089      .   S
    C1754  O1752     1.26980      .   S
    C1790  O1788     1.27170      .   S
    C1796  O1794     1.27055      .   S
    C3651  H3664     1.08128      .   S
    C2595  H2608     1.08129      .   S
    C1868  O1866     1.26955      .   S
    C4322  C4321     1.40099      .   S
    C4322  C4326     1.48371      .   S
    C3726  C3727     1.33996      .   S
    H4051  C4039     1.08231      .   S
    C3147  H3160     1.08204      .   S
    C3723  H3736     1.08138      .   S
    C3915  H3928     1.08094      .   S
    C4394  C4393     1.40300      .   S
    C4394  C4398     1.48598      .   S
    H3091  C3079     1.08091      .   S
    C4107  H4120     1.08211      .   S
    C2670  C2671     1.34087      .   S
    C2977  H2991     1.08339      .   S
    C2667  H2680     1.08163      .   S
    C4329  C4330     1.39557      .   S
    C4329  C4328     1.40254      .   S
    C3073  H3087     1.08347      .   S
    C4327  C4326     1.34126      .   S
    C4327  C4328     1.48349      .   S
    H4411  C4399     1.08201      .   S
    H4341  C4330     1.08284      .   S
    C4033  H4047     1.08276      .   S
    C2785  H2799     1.08298      .   S
    C3049  H3063     1.08300      .   S
    C2983  C2982     1.34323      .   S
    C2983  C2984     1.48746      .   S
    C2982  H2994     1.08129      .   S
    C2791  C2790     1.34295      .   S
    C2791  C2792     1.48728      .   S
    C3150  H3162     1.07874      .   S
    C3150  C3151     1.34043      .   S
    C2790  H2802     1.08168      .   S
    C3055  C3054     1.34253      .   S
    C3055  C3056     1.48494      .   S
    H3862  C3852     1.08299      .   S
    C4110  H4122     1.07978      .   S
    C4110  C4111     1.34152      .   S
    C4321  H4335     1.08366      .   S
    C3078  C3079     1.34267      .   S
    C3078  H3090     1.08074      .   S
    H4123  C4111     1.08236      .   S
    C4393  H4407     1.08324      .   S
    C4039  C4038     1.34443      .   S
    C4039  C4040     1.48949      .   S
    C3054  H3066     1.08065      .   S
    C4038  H4050     1.08135      .   S
    C3079  C3080     1.48740      .   S
    C3853  C3852     1.39951      .   S
    C3853  C3848     1.40957      .   S
    H3163  C3151     1.08247      .   S
    H2878  C2868     1.08343      .   S
    H3934  C3924     1.08315      .   S
    C3655  H3667     1.08163      .   S
    C3655  C3656     1.48502      .   S
    H2614  C2604     1.08298      .   S
    C4399  C4398     1.34326      .   S
    C4399  C4400     1.48663      .   S
    C4326  H4338     1.08179      .   S
    C4111  C4112     1.48654      .   S
    C3727  H3739     1.08250      .   S
    C3727  C3728     1.48160      .   S
    C4398  H4410     1.08166      .   S
    C2869  C2868     1.39563      .   S
    C2869  C2864     1.40837      .   S
    C3151  C3152     1.48656      .   S
    C4330  C4331     1.40569      .   S
    C3925  C3924     1.39815      .   S
    C3925  C3920     1.40956      .   S
    C2605  C2604     1.39525      .   S
    C2605  C2600     1.40812      .   S
    C4328  C4333     1.40954      .   S
    C2671  H2683     1.08197      .   S
    C2671  C2672     1.48181      .   S
    H2804  C2793     1.08294      .   S
    H2996  C2985     1.08306      .   S
    C3847  C3848     1.48774      .   S
    C3847  H3859     1.08144      .   S
    H4127  C4117     1.07941      .   S
    H3068  C3057     1.08309      .   S
    H3671  C3661     1.08054      .   S
    C2984  C2985     1.40424      .   S
    C2984  C2989     1.40921      .   S
    O973   C974      1.27091      .   S
    C2792  C2793     1.40420      .   S
    C2792  C2797     1.40965      .   S
    O907   C908      1.27087      .   S
    O865   C866      1.27151      .   S
    C2863  C2864     1.48161      .   S
    C2863  H2875     1.08275      .   S
    O943   C944      1.27102      .   S
    H4052  C4041     1.08302      .   S
    H3167  C3157     1.07867      .   S
    H3743  C3733     1.08040      .   S
    C3852  C3851     1.40434      .   S
    O1807  C1808     1.27029      .   S
    C3056  C3057     1.40427      .   S
    C3056  C3061     1.40925      .   S
    O1873  C1874     1.27080      .   S
    C3919  C3920     1.48625      .   S
    C3919  H3931     1.08149      .   S
    C2599  C2600     1.48129      .   S
    C2599  H2611     1.08200      .   S
    H3092  C3081     1.08329      .   S
    O937   C938      1.27014      .   S
    C3656  C3661     1.40938      .   S
    C3656  C3657     1.40333      .   S
    H4412  C4401     1.08359      .   S
    C4040  C4041     1.40552      .   S
    C4040  C4045     1.41002      .   S
    O901   C902      1.27043      .   S
    C2985  C2986     1.39800      .   S
    C2793  C2794     1.39844      .   S
    H2999  C2989     1.08079      .   S
    O871   C872      1.27086      .   S
    C3080  C3081     1.40390      .   S
    C3080  C3085     1.41046      .   S
    O1771  C1772     1.27139      .   S
    H2687  C2677     1.08115      .   S
    C2868  C2867     1.40347      .   S
    C3728  C3733     1.40932      .   S
    C3728  C3729     1.40314      .   S
    C4112  C4117     1.41075      .   S
    C4112  C4113     1.40329      .   S
    O979   C980      1.27202      .   S
    C3661  C3660     1.40043      .   S
    O1801  C1802     1.27086      .   S
    H2807  C2797     1.08071      .   S
    O1879  C1880     1.27263      .   S
    C3057  C3058     1.39776      .   S
    C3924  C3923     1.40418      .   S
    C2604  C2603     1.40397      .   S
    O1837  C1838     1.27086      .   S
    O1765  C1766     1.27039      .   S
    O1843  C1844     1.27122      .   S
    C4117  C4116     1.39957      .   S
    C3152  C3157     1.41159      .   S
    C3152  C3153     1.40361      .   S
    H911   C910      1.08342      .   S
    C4400  C4401     1.40504      .   S
    C4400  C4405     1.40876      .   S
    C4041  C4042     1.39882      .   S
    C3733  C3732     1.39842      .   S
    H977   C976      1.08311      .   S
    C2989  C2988     1.39832      .   S
    H3071  C3061     1.08082      .   S
    C3848  C3849     1.40467      .   S
    H4055  C4045     1.08060      .   S
    H869   C868      1.08315      .   S
    H947   C946      1.08360      .   S
    C3157  C3156     1.39819      .   S
    C2672  C2677     1.40927      .   S
    C2672  C2673     1.40206      .   S
    C2797  C2796     1.39852      .   S
    H3095  C3085     1.08019      .   S
    C3081  C3082     1.39783      .   S
    H1877  C1876     1.08329      .   S
    H1811  C1810     1.08378      .   S
    C4401  C4402     1.39781      .   S
    H1775  C1774     1.08309      .   S
    H905   C904      1.08346      .   S
    C2677  C2676     1.39850      .   S
    C3061  C3060     1.39692      .   S
    H941   C940      1.08334      .   S
    C2864  C2865     1.40370      .   S
    C4045  C4044     1.39876      .   S
    H3668  C3657     1.08392      .   S
    H1805  C1804     1.08275      .   S
    C3920  C3921     1.40461      .   S
    H875   C874      1.08361      .   S
    C2600  C2601     1.40323      .   S
    H3740  C3729     1.08349      .   S
    C3085  C3084     1.39757      .   S
    C3657  C3658     1.39579      .   S
    H1841  C1840     1.08343      .   S
    H4415  C4405     1.08066      .   S
    H1769  C1768     1.08316      .   S
    H4124  C4113     1.08331      .   S
    C3729  C3730     1.39403      .   S
    H1883  C1882     1.08336      .   S
    H3164  C3153     1.08335      .   S
    C4113  C4114     1.39582      .   S
    H983   C982      1.08317      .   S
    H1847  C1846     1.08326      .   S
    C3153  C3154     1.39459      .   S
    H2684  C2673     1.08357      .   S
    C2794  H2805     1.08299      .   S
    C2794  C2795     1.40551      .   S
    C4405  C4404     1.39882      .   S
    C3660  H3670     1.08323      .   S
    C3660  C3659     1.40480      .   S
    C2986  H2997     1.08331      .   S
    C2986  C2987     1.40484      .   S
    C4116  H4126     1.08289      .   S
    C4116  C4115     1.40378      .   S
    C2673  C2674     1.39529      .   S
    C3058  H3069     1.08290      .   S
    C3058  C3059     1.40426      .   S
    C3732  H3742     1.08291      .   S
    C3732  C3731     1.40352      .   S
    C4042  H4053     1.08311      .   S
    C4042  C4043     1.40471      .   S
    C3156  H3166     1.08303      .   S
    C3156  C3155     1.40236      .   S
    C2988  C2987     1.40496      .   S
    C2988  H2998     1.08333      .   S
    C2796  C2795     1.40488      .   S
    C2796  H2806     1.08281      .   S
    C974   O972      1.27072      .   S
    C974   C975      1.48282      .   S
    C3082  H3093     1.08333      .   S
    C3082  C3083     1.40385      .   S
    C908   O906      1.27045      .   S
    C908   C909      1.48085      .   S
    C2676  H2686     1.08243      .   S
    C2676  C2675     1.40434      .   S
    C4402  H4413     1.08325      .   S
    C4402  C4403     1.40391      .   S
    C4331  C1025     1.48339      .   S
    C4331  C4332     1.40397      .   S
    C866   O864      1.27010      .   S
    C866   C867      1.48129      .   S
    C944   O942      1.27125      .   S
    C944   C945      1.48320      .   S
    C1808  O1806     1.27018      .   S
    C1808  C1809     1.48139      .   S
    C3060  C3059     1.40371      .   S
    C3060  H3070     1.08308      .   S
    C1874  O1872     1.26938      .   S
    C1874  C1875     1.47945      .   S
    C4044  C4043     1.40485      .   S
    C4044  H4054     1.08300      .   S
    C3658  C3659     1.40513      .   S
    C3658  H3669     1.08275      .   S
    C910   C909      1.40294      .   S
    C910   C1025     1.40286      .   S
    C938   O936      1.27109      .   S
    C938   C939      1.48172      .   S
    C4333  H4343     1.08128      .   S
    C4333  C4332     1.39908      .   S
    C2987  C1004     1.48464      .   S
    C902   O900      1.27132      .   S
    C902   C903      1.48366      .   S
    C2795  C1013     1.48649      .   S
    C976   C975      1.40460      .   S
    C976   C1013     1.40460      .   S
    C3730  C3731     1.40416      .   S
    C3730  H3741     1.08311      .   S
    C3084  C3083     1.40341      .   S
    C3084  H3094     1.08368      .   S
    C868   C867      1.40409      .   S
    C868   C1004     1.40465      .   S
    C4114  C4115     1.40599      .   S
    C4114  H4125     1.08303      .   S
    C872   O870      1.27009      .   S
    C872   C873      1.48023      .   S
    C3659  C1028     1.48571      .   S
    C1772  O1770     1.27058      .   S
    C1772  C1773     1.48279      .   S
    C946   C945      1.40697      .   S
    C946   C1028     1.40551      .   S
    C1802  O1800     1.26957      .   S
    C1802  C1803     1.48007      .   S
    C980   O978      1.26954      .   S
    C980   C981      1.48266      .   S
    C1880  O1878     1.27025      .   S
    C1880  C1881     1.48533      .   S
    C3059  C1925     1.48259      .   S
    C3154  C3155     1.40396      .   S
    C3154  H3165     1.08356      .   S
    C1810  C1809     1.40393      .   S
    C1810  C1925     1.40310      .   S
    C1838  O1836     1.27001      .   S
    C1838  C1839     1.48190      .   S
    C1766  O1764     1.27137      .   S
    C1766  C1767     1.48282      .   S
    C1876  C1875     1.40477      .   S
    C1876  C1913     1.40335      .   S
    C3731  C1913     1.48012      .   S
    C4115  C1907     1.48579      .   S
    C1844  O1842     1.26901      .   S
    C1844  C1845     1.48044      .   S
    C4043  C1022     1.48624      .   S
    C940   C939      1.40612      .   S
    C940   C1031     1.40568      .   S
    C904   C903      1.40575      .   S
    C904   C1022     1.40489      .   S
    C4404  C4403     1.40569      .   S
    C4404  H4414     1.08336      .   S
    C1774  C1773     1.40767      .   S
    C1774  C1907     1.40629      .   S
    C2674  C2675     1.40585      .   S
    C2674  H2685     1.08266      .   S
    C3851  C1031     1.48566      .   S
    C3851  C3850     1.40466      .   S
    C3155  C1922     1.48122      .   S
    C1804  C1803     1.40670      .   S
    C1804  C1922     1.40467      .   S
    C3083  C1007     1.48250      .   S
    C874   C873      1.40332      .   S
    C874   C1007     1.40369      .   S
    C2675  C1931     1.48325      .   S
    C1840  C1839     1.40624      .   S
    C1840  C1931     1.40400      .   S
    C1768  C1767     1.40482      .   S
    C1768  C1904     1.40560      .   S
    C4403  C1904     1.48561      .   S
    C1882  C1881     1.40577      .   S
    C1882  C1910     1.40467      .   S
    C1846  C1845     1.40392      .   S
    C1846  C1928     1.40375      .   S
    C982   C981      1.40388      .   S
    C982   C1010     1.40304      .   S
    C2867  C1928     1.48000      .   S
    C2867  C2866     1.40412      .   S
    C3923  C1910     1.48460      .   S
    C3923  C3922     1.40497      .   S
    C2603  C1010     1.48025      .   S
    C2603  C2602     1.40413      .   S
    C975   C1011     1.40529      .   S
    C909   C1023     1.40483      .   S
    C3849  C3850     1.39864      .   S
    C3849  H3860     1.08319      .   S
    C1025  C952      1.40479      .   S
    C867   C1002     1.40551      .   S
    C945   C1026     1.40671      .   S
    C1013  C886      1.40684      .   S
    C1004  C994      1.40564      .   S
    C4332  H4342     1.08307      .   S
    C1809  C1923     1.40509      .   S
    C1875  C1911     1.40633      .   S
    C1028  C916      1.40454      .   S
    C939   C1029     1.40505      .   S
    C903   C1020     1.40517      .   S
    C2865  C2866     1.39692      .   S
    C2865  H2876     1.08347      .   S
    C1925  C1852     1.40458      .   S
    C1913  C1786     1.40216      .   S
    C1773  C1905     1.40706      .   S
    C3921  C3922     1.39759      .   S
    C3921  H3932     1.08341      .   S
    C1022  C958      1.40607      .   S
    C2601  C2602     1.39718      .   S
    C2601  H2612     1.08331      .   S
    C1907  C1888     1.40202      .   S
    C873   C1005     1.40372      .   S
    C1031  C922      1.40508      .   S
    C1803  C1920     1.40633      .   S
    C981   C1008     1.40716      .   S
    C1881  C1908     1.40875      .   S
    C1839  C1929     1.40706      .   S
    C1845  C1926     1.40517      .   S
    C1767  C1902     1.40465      .   S
    C1922  C1858     1.40141      .   S
    C1007  C988      1.40537      .   S
    C1931  C1822     1.40262      .   S
    C1904  C1894     1.40573      .   S
    C1928  C1816     1.40270      .   S
    C1910  C1780     1.40396      .   S
    C1010  C880      1.40207      .   S
    C3850  H3861     1.08290      .   S
    C2866  H2877     1.08270      .   S
    C3922  H3933     1.08311      .   S
    C2602  H2613     1.08302      .   S
    C1011  H1012     1.08349      .   S
    C1011  C885      1.40632      .   S
    C1002  H1003     1.08321      .   S
    C1002  C993      1.40510      .   S
    C1023  H1024     1.08289      .   S
    C1023  C951      1.40742      .   S
    C952   H953      1.08320      .   S
    C952   C951      1.40677      .   S
    C886   H887      1.08318      .   S
    C886   C885      1.40695      .   S
    C994   H995      1.08352      .   S
    C994   C993      1.40690      .   S
    C1026  H1027     1.08302      .   S
    C1026  C915      1.40530      .   S
    C1029  H1030     1.08329      .   S
    C1029  C921      1.40353      .   S
    C1923  H1924     1.08334      .   S
    C1923  C1851     1.40548      .   S
    C916   H917      1.08328      .   S
    C916   C915      1.40422      .   S
    C1020  H1021     1.08289      .   S
    C1020  C957      1.40576      .   S
    C1911  H1912     1.08319      .   S
    C1911  C1785     1.40380      .   S
    C1852  H1853     1.08344      .   S
    C1852  C1851     1.40524      .   S
    C958   H959      1.08377      .   S
    C958   C957      1.40699      .   S
    C1905  H1906     1.08330      .   S
    C1905  C1887     1.40467      .   S
    C922   H923      1.08337      .   S
    C922   C921      1.40484      .   S
    C1005  H1006     1.08314      .   S
    C1005  C987      1.40567      .   S
    C1786  H1787     1.08368      .   S
    C1786  C1785     1.40218      .   S
    C1888  H1889     1.08353      .   S
    C1888  C1887     1.40245      .   S
    C1926  H1927     1.08295      .   S
    C1926  C1815     1.40470      .   S
    C1008  H1009     1.08306      .   S
    C1008  C879      1.40704      .   S
    C1920  H1921     1.08289      .   S
    C1920  C1857     1.40310      .   S
    C1929  H1930     1.08318      .   S
    C1929  C1821     1.40442      .   S
    C1908  H1909     1.08354      .   S
    C1908  C1779     1.40781      .   S
    C1902  H1903     1.08301      .   S
    C1902  C1893     1.40533      .   S
    C988   H989      1.08288      .   S
    C988   C987      1.40670      .   S
    C1858  H1859     1.08312      .   S
    C1858  C1857     1.40222      .   S
    C1816  H1817     1.08335      .   S
    C1816  C1815     1.40409      .   S
    C1822  H1823     1.08261      .   S
    C1822  C1821     1.40347      .   S
    C1894  H1895     1.08346      .   S
    C1894  C1893     1.40604      .   S
    C880   H881      1.08359      .   S
    C880   C879      1.40343      .   S
    C1780  H1781     1.08322      .   S
    C1780  C1779     1.40461      .   S
    C885   C884      1.48445      .   S
    C993   C992      1.48309      .   S
    C951   C950      1.48249      .   S
    C915   C914      1.48281      .   S
    C921   C920      1.48101      .   S
    C1851  C1850     1.48154      .   S
    C957   C956      1.48382      .   S
    C1785  C1784     1.47897      .   S
    C1887  C1886     1.48056      .   S
    C987   C986      1.48223      .   S
    C1815  C1814     1.47973      .   S
    C879   C878      1.48206      .   S
    C1821  C1820     1.48137      .   S
    C1857  C1856     1.47869      .   S
    C1893  C1892     1.48296      .   S
    C1779  C1778     1.48519      .   S
    C884   O883      1.27025      .   S
    C884   O882      1.27147      .   S
    C992   O991      1.27060      .   S
    C992   O990      1.27109      .   S
    C950   O949      1.27083      .   S
    C950   O948      1.27064      .   S
    C920   O919      1.27042      .   S
    C920   O918      1.27102      .   S
    C914   O912      1.27063      .   S
    C914   O913      1.27052      .   S
    C956   O954      1.27086      .   S
    C956   O955      1.27103      .   S
    C1850  O1849     1.27060      .   S
    C1850  O1848     1.27015      .   S
    C1784  O1783     1.26953      .   S
    C1784  O1782     1.27060      .   S
    C1886  O1885     1.26978      .   S
    C1886  O1884     1.27090      .   S
    C1814  O1813     1.26989      .   S
    C1814  O1812     1.27057      .   S
    C986   O984      1.27067      .   S
    C986   O985      1.27056      .   S
    C878   O876      1.26988      .   S
    C878   O877      1.27181      .   S
    C1820  O1818     1.27035      .   S
    C1820  O1819     1.27066      .   S
    C1856  O1854     1.27004      .   S
    C1856  O1855     1.26930      .   S
    C1892  O1890     1.27079      .   S
    C1892  O1891     1.27039      .   S
    C1778  O1776     1.27093      .   S
    C1778  O1777     1.27166      .   S
    O769   C770      1.27138      .   S
    O733   C734      1.27075      .   S
    O768   C770      1.27019      .   S
    O732   C734      1.27113      .   S
    O703   C704      1.27048      .   S
    O702   C704      1.27015      .   S
    O805   C806      1.27046      .   S
    O804   C806      1.27124      .   S
    O810   C812      1.27002      .   S
    O811   C812      1.27118      .   S
    O696   C698      1.27105      .   S
    O697   C698      1.27093      .   S
    O1963  C1964     1.26992      .   S
    O1999  C2000     1.26978      .   S
    O2071  C2072     1.27066      .   S
    O2029  C2030     1.26995      .   S
    O1962  C1964     1.27142      .   S
    O2070  C2072     1.27042      .   S
    O1998  C2000     1.27021      .   S
    O2028  C2030     1.27148      .   S
    O738   C740      1.27033      .   S
    O774   C776      1.27062      .   S
    O775   C776      1.26985      .   S
    O739   C740      1.27047      .   S
    O2065  C2066     1.26919      .   S
    O2064  C2066     1.27082      .   S
    O1957  C1958     1.27001      .   S
    O1956  C1958     1.27047      .   S
    O2034  C2036     1.27041      .   S
    O1992  C1994     1.27188      .   S
    O2035  C2036     1.27117      .   S
    O1993  C1994     1.27094      .   S
    C770   C771      1.48410      .   S
    C734   C735      1.48448      .   S
    C704   C705      1.48151      .   S
    C806   C807      1.48183      .   S
    C812   C813      1.48416      .   S
    C698   C699      1.48280      .   S
    C1964  C1965     1.48146      .   S
    C2000  C2001     1.47869      .   S
    C2072  C2073     1.48013      .   S
    C2030  C2031     1.48176      .   S
    C776   C777      1.48157      .   S
    C740   C741      1.48323      .   S
    C2066  C2067     1.47748      .   S
    C1958  C1959     1.48154      .   S
    C2036  C2037     1.48217      .   S
    C1994  C1995     1.48507      .   S
    C771   C772      1.40246      .   S
    C771   C843      1.40690      .   S
    C735   C736      1.40465      .   S
    C735   C846      1.40542      .   S
    C705   C706      1.40240      .   S
    C705   C831      1.40511      .   S
    H773   C772      1.08351      .   S
    C813   C814      1.40301      .   S
    C813   C822      1.40614      .   S
    H737   C736      1.08339      .   S
    C807   C808      1.40349      .   S
    C807   C825      1.40475      .   S
    H707   C706      1.08355      .   S
    C699   C700      1.40744      .   S
    C699   C828      1.40567      .   S
    C2001  C2002     1.40314      .   S
    C2001  C2109     1.40260      .   S
    C2073  C2074     1.40258      .   S
    C2073  C2082     1.40478      .   S
    H809   C808      1.08292      .   S
    H844   C843      1.08350      .   S
    C1965  C1966     1.40369      .   S
    C1965  C2091     1.40411      .   S
    C2031  C2032     1.40393      .   S
    C2031  C2103     1.40328      .   S
    H847   C846      1.08331      .   S
    H815   C814      1.08356      .   S
    H832   C831      1.08284      .   S
    C777   C778      1.40561      .   S
    C777   C840      1.40508      .   S
    H2075  C2074     1.08349      .   S
    C2067  C2068     1.40191      .   S
    C2067  C2085     1.40184      .   S
    C741   C742      1.40704      .   S
    C741   C849      1.40480      .   S
    H2003  C2002     1.08287      .   S
    H701   C700      1.08349      .   S
    H2033  C2032     1.08330      .   S
    H823   C822      1.08309      .   S
    H779   C778      1.08322      .   S
    H826   C825      1.08342      .   S
    H1967  C1966     1.08272      .   S
    C1959  C1960     1.40386      .   S
    C1959  C2088     1.40404      .   S
    H829   C828      1.08329      .   S
    C2037  C2038     1.40540      .   S
    C2037  C2100     1.40670      .   S
    C1995  C1996     1.40762      .   S
    C1995  C2106     1.40584      .   S
    H2069  C2068     1.08331      .   S
    H1961  C1960     1.08300      .   S
    H2110  C2109     1.08372      .   S
    H2092  C2091     1.08295      .   S
    H743   C742      1.08330      .   S
    H2039  C2038     1.08295      .   S
    H850   C849      1.08276      .   S
    H2083  C2082     1.08327      .   S
    H2104  C2103     1.08317      .   S
    H2086  C2085     1.08285      .   S
    H841   C840      1.08311      .   S
    H1997  C1996     1.08344      .   S
    C772   C845      1.40256      .   S
    H2107  C2106     1.08295      .   S
    C736   C848      1.40609      .   S
    H2101  C2100     1.08265      .   S
    H2089  C2088     1.08317      .   S
    C843   C729      1.40887      .   S
    C706   C833      1.40216      .   S
    H4029  C4018     1.08301      .   S
    C846   C765      1.40658      .   S
    C831   C795      1.40853      .   S
    C814   C824      1.40368      .   S
    C808   C827      1.40399      .   S
    C822   C687      1.40860      .   S
    C2074  C2084     1.40227      .   S
    C700   C830      1.40543      .   S
    C2002  C2111     1.40292      .   S
    C825   C693      1.40585      .   S
    C828   C801      1.40450      .   S
    C2032  C2105     1.40437      .   S
    C778   C842      1.40427      .   S
    C2109  C2019     1.40514      .   S
    C1966  C2093     1.40533      .   S
    C2068  C2087     1.40221      .   S
    C2082  C1947     1.40692      .   S
    C2091  C2055     1.40595      .   S
    C840   C723      1.40471      .   S
    C2103  C1989     1.40579      .   S
    C742   C851      1.40671      .   S
    C849   C759      1.40381      .   S
    C2085  C1953     1.40566      .   S
    C1960  C2090     1.40486      .   S
    C2038  C2102     1.40418      .   S
    C1996  C2108     1.40795      .   S
    C2106  C2025     1.40513      .   S
    C2100  C1983     1.40655      .   S
    C2088  C2061     1.40570      .   S
    H4028  C4017     1.08339      .   S
    C845   C4235     1.48435      .   S
    C845   C730      1.40529      .   S
    C4018  C4017     1.39719      .   S
    C4018  C4019     1.40484      .   S
    C848   C766      1.40657      .   S
    C848   C3755     1.48873      .   S
    C729   C730      1.40808      .   S
    C729   C728      1.48582      .   S
    C833   C796      1.40518      .   S
    C833   C2699     1.48411      .   S
    C765   C766      1.40722      .   S
    C765   C764      1.48440      .   S
    C824   C688      1.40585      .   S
    C824   C2891     1.48565      .   S
    C795   C796      1.40791      .   S
    C795   C794      1.48471      .   S
    C827   C694      1.40553      .   S
    C827   C3179     1.48354      .   S
    C687   C688      1.40776      .   S
    C687   C686      1.48589      .   S
    C2084  C4307     1.48165      .   S
    C2084  C1948     1.40435      .   S
    C830   C802      1.40313      .   S
    C830   C2507     1.48453      .   S
    C842   C724      1.40399      .   S
    C842   C4139     1.48330      .   S
    C2111  C2020     1.40554      .   S
    C2111  C2579     1.48291      .   S
    C693   C694      1.40671      .   S
    C693   C692      1.48243      .   S
    C801   C802      1.40402      .   S
    C801   C800      1.48135      .   S
    C2105  C1990     1.40571      .   S
    C2105  C2963     1.48616      .   S
    C2087  C1954     1.40523      .   S
    C2087  C4211     1.48136      .   S
    C2019  C2020     1.40757      .   S
    C2019  C2018     1.48185      .   S
    C723   C724      1.40494      .   S
    C723   C722      1.48091      .   S
    C1947  C1948     1.40569      .   S
    C1947  C1946     1.48136      .   S
    C851   C760      1.40544      .   S
    C851   C3947     1.48639      .   S
    C1953  C1954     1.40766      .   S
    C1953  C1952     1.48070      .   S
    C759   C760      1.40412      .   S
    C759   C758      1.48113      .   S
    C2093  C2056     1.40597      .   S
    C2093  C3827     1.48485      .   S
    C2102  C3251     1.48092      .   S
    C2102  C1984     1.40255      .   S
    C1989  C1990     1.40675      .   S
    C1989  C1988     1.48214      .   S
    C2090  C4019     1.48634      .   S
    C2090  C2062     1.40722      .   S
    C2055  C2056     1.40584      .   S
    C2055  C2054     1.48188      .   S
    O726   C728      1.27069      .   S
    C2108  C2026     1.40627      .   S
    C2108  C2771     1.48993      .   S
    O762   C764      1.27070      .   S
    O792   C794      1.27060      .   S
    O684   C686      1.27099      .   S
    C2025  C2026     1.40605      .   S
    C2025  C2024     1.48535      .   S
    H3765  C3754     1.08263      .   S
    H4245  C4234     1.08325      .   S
    C1983  C1984     1.40395      .   S
    C1983  C1982     1.48159      .   S
    O798   C800      1.27062      .   S
    O690   C692      1.27039      .   S
    O720   C722      1.27064      .   S
    C2061  C2062     1.40742      .   S
    C2061  C2060     1.48363      .   S
    O756   C758      1.27121      .   S
    O2016  C2018     1.27109      .   S
    O1950  C1952     1.26953      .   S
    O1944  C1946     1.26968      .   S
    C4017  C4016     1.40437      .   S
    H2709  C2698     1.08324      .   S
    O1986  C1988     1.27085      .   S
    O2052  C2054     1.26995      .   S
    H3189  C3178     1.08284      .   S
    H2901  C2890     1.08319      .   S
    O2022  C2024     1.27217      .   S
    C4235  C4234     1.40545      .   S
    C4235  C4236     1.40316      .   S
    H4317  C4306     1.08316      .   S
    C730   H731      1.08301      .   S
    H2973  C2962     1.08255      .   S
    O1980  C1982     1.26993      .   S
    H3837  C3826     1.08323      .   S
    C766   H767      1.08370      .   S
    C796   H797      1.08326      .   S
    H2589  C2578     1.08357      .   S
    C688   H689      1.08324      .   S
    O2058  C2060     1.27171      .   S
    C3755  C3754     1.40593      .   S
    C3755  C3756     1.40554      .   S
    C2699  C2698     1.40513      .   S
    C2699  C2700     1.40363      .   S
    C4234  C4233     1.39628      .   S
    C694   H695      1.08356      .   S
    C2891  C2890     1.40605      .   S
    C2891  C2892     1.40422      .   S
    C802   H803      1.08402      .   S
    H4150  C4140     1.08297      .   S
    C3179  C3178     1.40506      .   S
    C3179  C3180     1.40348      .   S
    C4307  C4306     1.40443      .   S
    C4307  C4308     1.40364      .   S
    C724   H725      1.08358      .   S
    H2518  C2508     1.08393      .   S
    C1948  H1949     1.08343      .   S
    H4221  C4210     1.08340      .   S
    C4139  C4140     1.40412      .   S
    C4139  C4138     1.40433      .   S
    C2020  H2021     1.08279      .   S
    C3754  C3753     1.39771      .   S
    C728   O727      1.27199      .   S
    C2579  C2578     1.40451      .   S
    C2579  C2580     1.40324      .   S
    C2507  C2508     1.40260      .   S
    C2507  C2506     1.40434      .   S
    H3958  C3948     1.08258      .   S
    C1954  H1955     1.08350      .   S
    C794   O793      1.27116      .   S
    C764   O763      1.27131      .   S
    H3262  C3252     1.08349      .   S
    C1990  H1991     1.08391      .   S
    C2963  C2962     1.40543      .   S
    C2963  C2964     1.40407      .   S
    C760   H761      1.08360      .   S
    C686   O685      1.27185      .   S
    C4211  C4210     1.40460      .   S
    C4211  C4212     1.40320      .   S
    C2698  C2697     1.39607      .   S
    H2782  C2772     1.08254      .   S
    C4019  C4020     1.40425      .   S
    C2056  H2057     1.08358      .   S
    C3251  C3252     1.40374      .   S
    C3251  C3250     1.40383      .   S
    C2890  C2889     1.39572      .   S
    C3178  C3177     1.39625      .   S
    C4306  C4305     1.39529      .   S
    C1984  H1985     1.08390      .   S
    C800   O799      1.26983      .   S
    C692   O691      1.27106      .   S
    C2026  H2027     1.08352      .   S
    C3947  C3948     1.40491      .   S
    C3947  C3946     1.40520      .   S
    H4246  C4236     1.08268      .   S
    C722   O721      1.27037      .   S
    C2962  C2961     1.39653      .   S
    C2018  O2017     1.26913      .   S
    C3827  C3826     1.40542      .   S
    C3827  C3828     1.40456      .   S
    C758   O757      1.27030      .   S
    C2062  H2063     1.08334      .   S
    C2578  C2577     1.39497      .   S
    C2771  C2772     1.40569      .   S
    C2771  C2770     1.40566      .   S
    C1952  O1951     1.27091      .   S
    H4149  C4138     1.08270      .   S
    C1946  O1945     1.27083      .   S
    C4140  C4141     1.39808      .   S
    C1988  O1987     1.27097      .   S
    C2054  O2053     1.27126      .   S
    C4210  C4209     1.39521      .   S
    C4236  C4237     1.39987      .   S
    H2710  C2700     1.08290      .   S
    C3826  C3825     1.39559      .   S
    H4222  C4212     1.08281      .   S
    H2517  C2506     1.08330      .   S
    H4318  C4308     1.08295      .   S
    H2902  C2892     1.08258      .   S
    C2508  C2509     1.39827      .   S
    H3190  C3180     1.08314      .   S
    C2024  O2023     1.26972      .   S
    H2590  C2580     1.08287      .   S
    C3252  C3253     1.39658      .   S
    H3261  C3250     1.08271      .   S
    C3948  C3949     1.39908      .   S
    C1982  O1981     1.27156      .   S
    C2700  C2701     1.39992      .   S
    C4138  C4137     1.39715      .   S
    C2772  C2773     1.40020      .   S
    H3766  C3756     1.08272      .   S
    C4308  C4309     1.39885      .   S
    C2892  C2893     1.40043      .   S
    C2060  O2059     1.27036      .   S
    C3180  C3181     1.39920      .   S
    C4212  C4213     1.39899      .   S
    C2580  C2581     1.40034      .   S
    H2974  C2964     1.08325      .   S
    C3756  C3757     1.40121      .   S
    C2506  C2505     1.39793      .   S
    H3957  C3946     1.08234      .   S
    C4233  H4244     1.08375      .   S
    C4233  C4232     1.40292      .   S
    H2781  C2770     1.08232      .   S
    C3250  C3249     1.39670      .   S
    C2964  C2965     1.40000      .   S
    C3753  H3764     1.08384      .   S
    C3753  C3752     1.40286      .   S
    C3946  C3945     1.39820      .   S
    C2697  H2708     1.08367      .   S
    C2697  C2696     1.40273      .   S
    H3838  C3828     1.08299      .   S
    C2770  C2769     1.39945      .   S
    C2889  H2900     1.08395      .   S
    C2889  C2888     1.40282      .   S
    C4305  H4316     1.08384      .   S
    C4305  C4304     1.40249      .   S
    C3177  H3188     1.08353      .   S
    C3177  C3176     1.40401      .   S
    C3828  C3829     1.39982      .   S
    C2961  H2972     1.08332      .   S
    C2961  C2960     1.40406      .   S
    C2577  H2588     1.08345      .   S
    C2577  C2576     1.40368      .   S
    C4209  H4220     1.08288      .   S
    C4209  C4208     1.40233      .   S
    C4237  C4232     1.41022      .   S
    C4237  H4247     1.08075      .   S
    C4141  H4151     1.08008      .   S
    C4141  C4136     1.40960      .   S
    H4027  C4015     1.08143      .   S
    C3825  H3836     1.08360      .   S
    C3825  C3824     1.40269      .   S
    C2701  C2696     1.41063      .   S
    C2701  H2711     1.08021      .   S
    C4232  C4231     1.48634      .   S
    C4213  C4208     1.41126      .   S
    C4213  H4223     1.08064      .   S
    C3253  H3263     1.08052      .   S
    C3253  C3248     1.40933      .   S
    C4309  C4304     1.40894      .   S
    C4309  H4319     1.08092      .   S
    C2893  C2888     1.41022      .   S
    C2893  H2903     1.08030      .   S
    C3181  C3176     1.41072      .   S
    C3181  H3191     1.08034      .   S
    C2509  H2519     1.07974      .   S
    C2509  C2504     1.41070      .   S
    C2581  C2576     1.41027      .   S
    C2581  H2591     1.08051      .   S
    C4137  C4136     1.40440      .   S
    C4137  H4148     1.08346      .   S
    C2773  H2783     1.08027      .   S
    C2773  C2768     1.41025      .   S
    C3949  H3959     1.08099      .   S
    C3949  C3944     1.40930      .   S
    C2696  C2695     1.48566      .   S
    C3757  C3752     1.40950      .   S
    C3757  H3767     1.08121      .   S
    C2965  C2960     1.41000      .   S
    C2965  H2975     1.08060      .   S
    C4304  C4303     1.48232      .   S
    C2888  C2887     1.48629      .   S
    C3176  C3175     1.48623      .   S
    C3249  C3248     1.40400      .   S
    C3249  H3260     1.08394      .   S
    C4208  C4207     1.48506      .   S
    C2505  C2504     1.40432      .   S
    C2505  H2516     1.08340      .   S
    C2576  C2575     1.48495      .   S
    C4016  C4015     1.48772      .   S
    C4016  C4021     1.40998      .   S
    C3752  C3751     1.48714      .   S
    C2960  C2959     1.48666      .   S
    C4136  C4135     1.48635      .   S
    C2769  C2768     1.40492      .   S
    C2769  H2780     1.08290      .   S
    H4243  C4231     1.08154      .   S
    C3945  C3944     1.40407      .   S
    C3945  H3956     1.08332      .   S
    C3829  C3824     1.40961      .   S
    C3829  H3839     1.08037      .   S
    H4146  C4134     1.08174      .   S
    C3248  C3247     1.48436      .   S
    H3258  C3246     1.08106      .   S
    C2504  C2503     1.48969      .   S
    C3824  C3823     1.48517      .   S
    H2707  C2695     1.08113      .   S
    H4143  C4129     1.08284      .   S
    H3255  C3241     1.08299      .   S
    O708   C710      1.27090      .   S
    O786   C788      1.26979      .   S
    O744   C746      1.27091      .   S
    C2768  C2767     1.49121      .   S
    H2899  C2887     1.08152      .   S
    H4315  C4303     1.08208      .   S
    O672   C674      1.27014      .   S
    H3763  C3751     1.08202      .   S
    O780   C782      1.27029      .   S
    C4231  C4230     1.34192      .   S
    O678   C680      1.27128      .   S
    H4240  C4227     1.08065      .   S
    H3954  C3942     1.08134      .   S
    H3951  C3937     1.08325      .   S
    C4020  C4021     1.39973      .   S
    C4020  H4030     1.08311      .   S
    C3944  C3943     1.48688      .   S
    H2778  C2766     1.08054      .   S
    O750   C752      1.27120      .   S
    H4219  C4207     1.08117      .   S
    O1974  C1976     1.26891      .   S
    O714   C716      1.27054      .   S
    H3187  C3175     1.08159      .   S
    H2704  C2691     1.08124      .   S
    H2971  C2959     1.08113      .   S
    H2896  C2883     1.08101      .   S
    H2587  C2575     1.08226      .   S
    H4312  C4299     1.08140      .   S
    H2775  C2761     1.08331      .   S
    O2040  C2042     1.27065      .   S
    O2004  C2006     1.26956      .   S
    H2584  C2571     1.08147      .   S
    C2695  C2694     1.34037      .   S
    O1938  C1940     1.27063      .   S
    H3760  C3747     1.08118      .   S
    C4015  C4014     1.34325      .   S
    H2514  C2502     1.08020      .   S
    H4216  C4203     1.08109      .   S
    H3184  C3171     1.08132      .   S
    O1968  C1970     1.26920      .   S
    O2046  C2048     1.27172      .   S
    C4207  C4206     1.34049      .   S
    C2887  C2886     1.34228      .   S
    C4303  C4302     1.34049      .   S
    H2968  C2955     1.08096      .   S
    C3175  C3174     1.34192      .   S
    C2575  C2574     1.34173      .   S
    H835   C834      1.08297      .   S
    C3751  C3750     1.34332      .   S
    O1932  C1934     1.26998      .   S
    H817   C816      1.08337      .   S
    H4024  C4011     1.08104      .   S
    O2010  C2012     1.27004      .   S
    C2959  C2958     1.34223      .   S
    H820   C819      1.08375      .   S
    H3835  C3823     1.08229      .   S
    H2098  C2097     1.08274      .   S
    H838   C837      1.08293      .   S
    H3832  C3819     1.08073      .   S
    H2511  C2497     1.08364      .   S
    H2080  C2079     1.08309      .   S
    C4135  C4134     1.34277      .   S
    C4135  H4147     1.08182      .   S
    C4134  C4130     1.48527      .   S
    H2077  C2076     1.08351      .   S
    H2095  C2094     1.08321      .   S
    C3246  C3247     1.34187      .   S
    C3246  C3242     1.48377      .   S
    C3823  C3822     1.34215      .   S
    C4021  H4031     1.08060      .   S
    C3247  H3259     1.08135      .   S
    C2766  C2767     1.34443      .   S
    C2766  C2762     1.48956      .   S
    C2503  C2502     1.34289      .   S
    C2503  H2515     1.08121      .   S
    C2767  H2779     1.08196      .   S
    C3942  C3943     1.34189      .   S
    C3942  C3938     1.48626      .   S
    C2502  C2498     1.48670      .   S
    C4129  C4130     1.40330      .   S
    C4129  C4128     1.39743      .   S
    C3943  H3955     1.08239      .   S
    C3241  C3242     1.40228      .   S
    C3241  C3240     1.39602      .   S
    C4230  H4242     1.08100      .   S
    C4230  C4226     1.48550      .   S
    C4206  H4218     1.08135      .   S
    C4206  C4202     1.48342      .   S
    C4227  C4226     1.40984      .   S
    C4227  C4228     1.40161      .   S
    C2694  H2706     1.08104      .   S
    C2694  C2690     1.48500      .   S
    C3937  C3938     1.40030      .   S
    C3937  C3936     1.39591      .   S
    C2761  C2762     1.40355      .   S
    C2761  C2760     1.39786      .   S
    C2574  H2586     1.08102      .   S
    C2574  C2570     1.48494      .   S
    C3174  H3186     1.08071      .   S
    C3174  C3170     1.48569      .   S
    C2691  C2690     1.40939      .   S
    C2691  C2692     1.40124      .   S
    C2886  H2898     1.08102      .   S
    C2886  C2882     1.48603      .   S
    C2883  C2882     1.40920      .   S
    C2883  C2884     1.40011      .   S
    C4302  H4314     1.08174      .   S
    C4302  C4298     1.48185      .   S
    C4203  C4202     1.40953      .   S
    C4203  C4204     1.40099      .   S
    C2571  C2570     1.40924      .   S
    C2571  C2572     1.39976      .   S
    C4299  C4298     1.40763      .   S
    C4299  C4300     1.39762      .   S
    C3171  C3170     1.40806      .   S
    C3171  C3172     1.39923      .   S
    H3254  C3240     1.08042      .   S
    C746   O745      1.27129      .   S
    C746   C747      1.48442      .   S
    C710   O709      1.27138      .   S
    C710   C711      1.48604      .   S
    C788   O787      1.27172      .   S
    C788   C789      1.48321      .   S
    H4142  C4128     1.08105      .   S
    H4241  C4228     1.08150      .   S
    C2958  H2970     1.08061      .   S
    C2958  C2954     1.48673      .   S
    H2897  C2884     1.08062      .   S
    C674   O673      1.27051      .   S
    C674   C675      1.48283      .   S
    C680   O679      1.27077      .   S
    C680   C681      1.48655      .   S
    H3950  C3936     1.07958      .   S
    C2955  C2954     1.40813      .   S
    C2955  C2956     1.40065      .   S
    C3747  C3748     1.39930      .   S
    C3747  C3746     1.40803      .   S
    C782   O781      1.27053      .   S
    C782   C783      1.48213      .   S
    C2497  C2498     1.40199      .   S
    C2497  C2496     1.39351      .   S
    H2705  C2692     1.08140      .   S
    H4313  C4300     1.08098      .   S
    C3750  H3762     1.08155      .   S
    C3750  C3746     1.48732      .   S
    C1976  O1975     1.27212      .   S
    C1976  C1977     1.48014      .   S
    C4130  C4131     1.40738      .   S
    C752   O751      1.26938      .   S
    C752   C753      1.48172      .   S
    C716   O715      1.27059      .   S
    C716   C717      1.48259      .   S
    H4025  C4012     1.08133      .   S
    H2774  C2760     1.08086      .   S
    H3761  C3748     1.08144      .   S
    C834   C747      1.40588      .   S
    C834   C711      1.40688      .   S
    H2585  C2572     1.08120      .   S
    C816   C789      1.40854      .   S
    C816   C675      1.40511      .   S
    H3185  C3172     1.08117      .   S
    C3242  C3243     1.40762      .   S
    C2006  O2005     1.27148      .   S
    C2006  C2007     1.48229      .   S
    C2042  O2041     1.26985      .   S
    C2042  C2043     1.48092      .   S
    C819   C783      1.40406      .   S
    C819   C681      1.40827      .   S
    H4217  C4204     1.08177      .   S
    H2969  C2956     1.08111      .   S
    C4011  C4012     1.40099      .   S
    C4011  C4010     1.40882      .   S
    C1940  O1939     1.27072      .   S
    C1940  C1941     1.48278      .   S
    C2048  O2047     1.27087      .   S
    C2048  C2049     1.48420      .   S
    C837   C753      1.40459      .   S
    C837   C717      1.40660      .   S
    C2097  C1977     1.40580      .   S
    C2097  C2007     1.40818      .   S
    C1970  O1969     1.27168      .   S
    C1970  C1971     1.48082      .   S
    C3819  C3820     1.39687      .   S
    C3819  C3818     1.40614      .   S
    H3833  C3820     1.08110      .   S
    C2762  C2763     1.40888      .   S
    C3822  H3834     1.08139      .   S
    C3822  C3818     1.48557      .   S
    C1934  O1933     1.27131      .   S
    C1934  C1935     1.48320      .   S
    C2079  C1941     1.40534      .   S
    C2079  C2049     1.40549      .   S
    C2012  O2011     1.27117      .   S
    C2012  C2013     1.48470      .   S
    C4226  C4225     1.40128      .   S
    C3938  C3939     1.40736      .   S
    C2076  C2043     1.40388      .   S
    C2076  C1935     1.40678      .   S
    C3240  C3245     1.40649      .   S
    C4128  C4133     1.40637      .   S
    C2498  C2499     1.41019      .   S
    C2094  C1971     1.40524      .   S
    C2094  C2013     1.40734      .   S
    H2510  C2496     1.08062      .   S
    C4014  C4010     1.48653      .   S
    C4014  H4026     1.08124      .   S
    C4202  C4201     1.40074      .   S
    C2690  C2689     1.40080      .   S
    C4228  C4229     1.40649      .   S
    C2570  C2569     1.40130      .   S
    C3170  C3169     1.40201      .   S
    C2760  C2765     1.40701      .   S
    C2882  C2881     1.40162      .   S
    C3936  C3941     1.41141      .   S
    C2692  C2693     1.40566      .   S
    C2884  C2885     1.40709      .   S
    C4298  C4297     1.40137      .   S
    C4204  C4205     1.40570      .   S
    C4300  C4301     1.40635      .   S
    C2572  C2573     1.40529      .   S
    C3172  C3173     1.40639      .   S
    C2954  C2953     1.40207      .   S
    C2956  C2957     1.40669      .   S
    C3748  C3749     1.40720      .   S
    C2496  C2501     1.40670      .   S
    C3746  C3745     1.40301      .   S
    C4012  C4013     1.40657      .   S
    C747   C748      1.40427      .   S
    C711   C712      1.40773      .   S
    C789   C790      1.40679      .   S
    C675   C676      1.40305      .   S
    C783   C784      1.40155      .   S
    C681   C682      1.40983      .   S
    C3820  C3821     1.41032      .   S
    C1977  C1978     1.40164      .   S
    C753   C754      1.40366      .   S
    C717   C718      1.40688      .   S
    C2007  C2008     1.40526      .   S
    H293   C291      1.07973      .   S
    C3818  C3817     1.40206      .   S
    H201   C198      1.08005      .   S
    C4010  C4009     1.40170      .   S
    H230   C228      1.08003      .   S
    C2043  C2044     1.40219      .   S
    H461   C459      1.08032      .   S
    H377   C375      1.08048      .   S
    H222   C219      1.07925      .   S
    C1941  C1942     1.40461      .   S
    C2049  C2050     1.40714      .   S
    H306   C303      1.08148      .   S
    H398   C396      1.08065      .   S
    C1971  C1972     1.40243      .   S
    C1935  C1936     1.40789      .   S
    H285   C282      1.07983      .   S
    C2013  C2014     1.40762      .   S
    H474   C471      1.07928      .   S
    H209   C207      1.07962      .   S
    H482   C480      1.07997      .   S
    H453   C450      1.08107      .   S
    H390   C387      1.08018      .   S
    H314   C312      1.07999      .   S
    H369   C366      1.07974      .   S
    C4131  H4144     1.08078      .   S
    C4131  C4132     1.39801      .   S
    C3243  H3256     1.08074      .   S
    C3243  C3244     1.39834      .   S
    C2499  H2512     1.08058      .   S
    C2499  C2500     1.40284      .   S
    C2763  H2776     1.08107      .   S
    C2763  C2764     1.40227      .   S
    C4133  C4132     1.40677      .   S
    C4133  C374      1.48714      .   S
    C3245  C3244     1.40650      .   S
    C3245  C290      1.48578      .   S
    C4225  H4239     1.08366      .   S
    C4225  C4224     1.39452      .   S
    C4201  H4215     1.08355      .   S
    C4201  C4200     1.39334      .   S
    C3939  H3952     1.08103      .   S
    C3939  C3940     1.40163      .   S
    C2689  H2703     1.08358      .   S
    C2689  C2688     1.39502      .   S
    C2765  C2764     1.40759      .   S
    C2765  C220      1.49142      .   S
    C2569  H2583     1.08388      .   S
    C2569  C2568     1.39658      .   S
    C3169  H3183     1.08357      .   S
    C3169  C3168     1.39644      .   S
    C4229  C4224     1.40691      .   S
    C4229  C458      1.48840      .   S
    C2881  H2895     1.08333      .   S
    C2881  C2880     1.39628      .   S
    C4205  C4200     1.40721      .   S
    C4205  C395      1.48644      .   S
    C2693  C2688     1.40702      .   S
    C2693  C199      1.48735      .   S
    C2501  C2500     1.40628      .   S
    C2501  C283      1.48743      .   S
    C2885  C2880     1.40731      .   S
    C2885  C227      1.48886      .   S
    C3941  C3940     1.41088      .   S
    C3941  C472      1.41506      .   S
    C3173  C3168     1.40723      .   S
    C3173  C311      1.48831      .   S
    C2573  C2568     1.40665      .   S
    C2573  C304      1.48511      .   S
    C4297  H4311     1.08383      .   S
    C4297  C4296     1.39520      .   S
    C291   C290      1.38483      .   S
    C291   N287      1.34470      .   S
    C4301  C4296     1.40744      .   S
    C4301  C479      1.48632      .   S
    C375   C374      1.38654      .   S
    C375   N371      1.34648      .   S
    C2953  H2967     1.08387      .   S
    C2953  C2952     1.39737      .   S
    C219   C220      1.38735      .   S
    C219   N218      1.34526      .   S
    C2957  C2952     1.40717      .   S
    C2957  C206      1.48923      .   S
    C228   C227      1.38884      .   S
    C228   N224      1.34913      .   S
    C459   C458      1.38969      .   S
    C459   N455      1.35092      .   S
    C198   C199      1.38971      .   S
    C198   N197      1.34924      .   S
    C4132  H4145     1.08119      .   S
    C282   C283      1.38325      .   S
    C282   N281      1.34139      .   S
    C396   C395      1.38917      .   S
    C396   N392      1.35020      .   S
    C3749  C388      1.49027      .   S
    C3749  C3744     1.40779      .   S
    C3244  H3257     1.08125      .   S
    C471   C472      1.38820      .   S
    C471   N470      1.34259      .   S
    C303   C304      1.38978      .   S
    C303   N302      1.34763      .   S
    C3745  H3759     1.08297      .   S
    C3745  C3744     1.39841      .   S
    C790   H791      1.08332      .   S
    C790   C818      1.40544      .   S
    C676   H677      1.08340      .   S
    C676   C818      1.40257      .   S
    C748   H749      1.08282      .   S
    C748   C836      1.40672      .   S
    C712   H713      1.08346      .   S
    C712   C836      1.40638      .   S
    C480   C479      1.38702      .   S
    C480   N476      1.34744      .   S
    C207   C206      1.38849      .   S
    C207   N203      1.34854      .   S
    C784   H785      1.08323      .   S
    C784   C821      1.40273      .   S
    C682   H683      1.08296      .   S
    C682   C821      1.40694      .   S
    C4013  C451      1.48916      .   S
    C4013  C4008     1.40745      .   S
    C312   C311      1.38812      .   S
    C312   N308      1.34718      .   S
    C2500  H2513     1.08166      .   S
    C3821  C367      1.41333      .   S
    C3821  C3816     1.41086      .   S
    C754   H755      1.08337      .   S
    C754   C839      1.40377      .   S
    C450   C451      1.38961      .   S
    C450   N449      1.34779      .   S
    C2764  H2777     1.08112      .   S
    C1978  H1979     1.08338      .   S
    C1978  C2099     1.40066      .   S
    C387   C388      1.38828      .   S
    C387   N386      1.34664      .   S
    C718   H719      1.08365      .   S
    C718   C839      1.40475      .   S
    C366   C367      1.39037      .   S
    C366   N365      1.34481      .   S
    C2008  H2009     1.08354      .   S
    C2008  C2099     1.40348      .   S
    C3817  H3831     1.08334      .   S
    C3817  C3816     1.39856      .   S
    C4224  H4238     1.08045      .   S
    C4200  H4214     1.08039      .   S
    C2044  H2045     1.08309      .   S
    C2044  C2078     1.40351      .   S
    C290   C289      1.38606      .   S
    C374   C373      1.38648      .   S
    C2688  H2702     1.08053      .   S
    C2050  H2051     1.08324      .   S
    C2050  C2081     1.40651      .   S
    C1942  H1943     1.08354      .   S
    C1942  C2081     1.40449      .   S
    C4009  C4008     1.39660      .   S
    C4009  H4023     1.08373      .   S
    C3168  H3182     1.08048      .   S
    C3940  H3953     1.08104      .   S
    C2568  H2582     1.08138      .   S
    C1936  H1937     1.08331      .   S
    C1936  C2078     1.40645      .   S
    C1972  H1973     1.08376      .   S
    C1972  C2096     1.40251      .   S
    C2880  H2894     1.08020      .   S
    C220   C221      1.39044      .   S
    C2014  H2015     1.08299      .   S
    C2014  C2096     1.40637      .   S
    C458   C457      1.38270      .   S
    C283   C284      1.39066      .   S
    C227   C226      1.38454      .   S
    C199   C200      1.38325      .   S
    C395   C394      1.38132      .   S
    C472   C473      1.39421      .   S
    C4296  H4310     1.08040      .   S
    C311   C310      1.38577      .   S
    C2952  H2966     1.08068      .   S
    C479   C478      1.38453      .   S
    C304   C305      1.38579      .   S
    C206   C205      1.38484      .   S
    C388   C389      1.38824      .   S
    C3744  H3758     1.08089      .   S
    C818   C2123     1.48382      .   S
    C451   C452      1.38568      .   S
    C836   C3563     1.48834      .   S
    C367   C368      1.39141      .   S
    C821   C2219     1.48467      .   S
    N287   N288      1.31761      .   S
    C839   C3467     1.48534      .   S
    C3816  H3830     1.08067      .   S
    C2099  C2195     1.47883      .   S
    N218   N217      1.31448      .   S
    N281   N280      1.31385      .   S
    N371   N372      1.31884      .   S
    N224   N225      1.31792      .   S
    C4008  H4022     1.08071      .   S
    N455   N456      1.31885      .   S
    N197   N196      1.31357      .   S
    C2078  C3539     1.48421      .   S
    N392   N393      1.31860      .   S
    N470   N469      1.31369      .   S
    N476   N477      1.31726      .   S
    C2081  C3635     1.48573      .   S
    N203   N204      1.31968      .   S
    N449   N448      1.31435      .   S
    N308   N309      1.31970      .   S
    C2096  C2291     1.48334      .   S
    N365   N364      1.31321      .   S
    N386   N385      1.31452      .   S
    N302   N301      1.31324      .   S
    H2133  C2122     1.08287      .   S
    H2229  C2218     1.08340      .   S
    H3573  C3562     1.08356      .   S
    H3477  C3466     1.08272      .   S
    H2205  C2194     1.08325      .   S
    H3549  C3538     1.08271      .   S
    C289   N288      1.34739      .   S
    C289   H292      1.07992      .   S
    C373   N372      1.34638      .   S
    C373   H376      1.07992      .   S
    H2302  C2292     1.08293      .   S
    H3646  C3636     1.08329      .   S
    C221   N217      1.35028      .   S
    C221   H223      1.08049      .   S
    C284   N280      1.35107      .   S
    C284   H286      1.08058      .   S
    C310   N309      1.34465      .   S
    C310   H313      1.07921      .   S
    C457   N456      1.34316      .   S
    C457   H460      1.07896      .   S
    C226   N225      1.34528      .   S
    C226   H229      1.07909      .   S
    C473   N469      1.34962      .   S
    C473   H475      1.08031      .   S
    C394   N393      1.34225      .   S
    C394   H397      1.07900      .   S
    C200   N196      1.34323      .   S
    C200   H202      1.07881      .   S
    C478   N477      1.34411      .   S
    C478   H481      1.07933      .   S
    C205   N204      1.34531      .   S
    C205   H208      1.07974      .   S
    C305   N301      1.34400      .   S
    C305   H307      1.08138      .   S
    C368   N364      1.34730      .   S
    C368   H370      1.08001      .   S
    C389   N385      1.34751      .   S
    C389   H391      1.07941      .   S
    C452   N448      1.34494      .   S
    C452   H454      1.07931      .   S
    C2123  C2122     1.40513      .   S
    C2123  C2124     1.40372      .   S
    C2122  C2121     1.39537      .   S
    C3563  C3562     1.40527      .   S
    C3563  C3564     1.40626      .   S
    C2219  C2218     1.40594      .   S
    C2219  C2220     1.40391      .   S
    C2218  C2217     1.39486      .   S
    C3467  C3466     1.40509      .   S
    C3467  C3468     1.40476      .   S
    C3562  C3561     1.39635      .   S
    C3466  C3465     1.39558      .   S
    C2195  C2194     1.40476      .   S
    C2195  C2196     1.40250      .   S
    C2194  C2193     1.39297      .   S
    C3539  C3538     1.40538      .   S
    C3539  C3540     1.40418      .   S
    C3538  C3537     1.39532      .   S
    C3635  C3636     1.40446      .   S
    C3635  C3634     1.40524      .   S
    C2291  C2292     1.40269      .   S
    C2291  C2290     1.40462      .   S
    C2292  C2293     1.39782      .   S
    C3636  C3637     1.39906      .   S
    H3574  C3564     1.08316      .   S
    C2124  H2134     1.08329      .   S
    C2124  C2125     1.39993      .   S
    C3564  C3565     1.40129      .   S
    H2132  C2121     1.08312      .   S
    C2121  C2120     1.40301      .   S
    C2220  H2230     1.08268      .   S
    C2220  C2221     1.40108      .   S
    C3468  H3478     1.08263      .   S
    C3468  C3469     1.40051      .   S
    H2228  C2217     1.08312      .   S
    C2217  C2216     1.40259      .   S
    C3561  H3572     1.08352      .   S
    C3561  C3560     1.40347      .   S
    C3465  H3476     1.08367      .   S
    C3465  C3464     1.40254      .   S
    C2196  H2206     1.08322      .   S
    C2196  C2197     1.39769      .   S
    H2204  C2193     1.08338      .   S
    C2193  C2192     1.40218      .   S
    H3645  C3634     1.08339      .   S
    H2301  C2290     1.08282      .   S
    C3540  H3550     1.08334      .   S
    C3540  C3541     1.39970      .   S
    C3634  C3633     1.39789      .   S
    H3548  C3537     1.08392      .   S
    C3537  C3536     1.40208      .   S
    C2290  C2289     1.39745      .   S
    H2303  C2293     1.08043      .   S
    C2293  C2288     1.41021      .   S
    C3637  H3647     1.08088      .   S
    C3637  C3632     1.40951      .   S
    C2125  C2120     1.41003      .   S
    C2125  H2135     1.08041      .   S
    C2120  C2119     1.48374      .   S
    C3565  C3560     1.40913      .   S
    C3565  H3575     1.08104      .   S
    C3469  C3464     1.40907      .   S
    C3469  H3479     1.08095      .   S
    C3560  C3559     1.48682      .   S
    C2221  C2216     1.41060      .   S
    C2221  H2231     1.08143      .   S
    C3464  C3463     1.48424      .   S
    C2216  C2215     1.48619      .   S
    C2197  C2192     1.40968      .   S
    C2197  H2207     1.08073      .   S
    C2192  C2191     1.48068      .   S
    C3541  C3536     1.41011      .   S
    C3541  H3551     1.08106      .   S
    C2289  C2288     1.40344      .   S
    C2289  H2300     1.08367      .   S
    C3633  C3632     1.40472      .   S
    C3633  H3644     1.08344      .   S
    C3536  C3535     1.48389      .   S
    N273   N274      1.31402      .   S
    N273   C277      1.34317      .   S
    N274   C275      1.34950      .   S
    C2288  C2287     1.48645      .   S
    C3632  C3631     1.48812      .   S
    N357   N358      1.31323      .   S
    N357   C361      1.34488      .   S
    N462   N463      1.31272      .   S
    N462   C466      1.34089      .   S
    N211   N210      1.31378      .   S
    N211   C212      1.35180      .   S
    N358   C359      1.34636      .   S
    N463   C464      1.35085      .   S
    N210   C214      1.34208      .   S
    N378   N379      1.31141      .   S
    N378   C382      1.34162      .   S
    N441   N442      1.31158      .   S
    N441   C445      1.34270      .   S
    N190   N189      1.31239      .   S
    N190   C191      1.34373      .   S
    N379   C380      1.34953      .   S
    N294   N295      1.31288      .   S
    N294   C298      1.34579      .   S
    N442   C443      1.34762      .   S
    N189   C193      1.34733      .   S
    N295   C296      1.34400      .   S
    C2119  H2131     1.08162      .   S
    C2119  C2118     1.34109      .   S
    C3559  H3571     1.08196      .   S
    C3559  C3558     1.34309      .   S
    C3463  H3475     1.08216      .   S
    C3463  C3462     1.34210      .   S
    C2215  H2227     1.08222      .   S
    C2215  C2214     1.34071      .   S
    C277   H279      1.07966      .   S
    C277   C276      1.38486      .   S
    C275   H278      1.08070      .   S
    C275   C276      1.39095      .   S
    C2191  H2203     1.08151      .   S
    C2191  C2190     1.33960      .   S
    H2298  C2286     1.08133      .   S
    C361   H363      1.07975      .   S
    C361   C360      1.39062      .   S
    C3535  H3547     1.08245      .   S
    C3535  C3534     1.34060      .   S
    C466   H468      1.07924      .   S
    C466   C465      1.38665      .   S
    H3642  C3630     1.08121      .   S
    C464   H467      1.08025      .   S
    C464   C465      1.39545      .   S
    C359   H362      1.07972      .   S
    C359   C360      1.39128      .   S
    C2287  C2286     1.34038      .   S
    C2287  H2299     1.08185      .   S
    C212   H215      1.08056      .   S
    C212   C213      1.39175      .   S
    C382   H384      1.07917      .   S
    C382   C381      1.38641      .   S
    C214   H216      1.07991      .   S
    C214   C213      1.38277      .   S
    C298   H300      1.08094      .   S
    C298   C297      1.38829      .   S
    C3631  C3630     1.34251      .   S
    C3631  H3643     1.08173      .   S
    C445   H447      1.07888      .   S
    C445   C444      1.38851      .   S
    C191   H194      1.07904      .   S
    C191   C192      1.38465      .   S
    C380   H383      1.08027      .   S
    C380   C381      1.39484      .   S
    C443   H446      1.07946      .   S
    C443   C444      1.39211      .   S
    C193   H195      1.08020      .   S
    C193   C192      1.38843      .   S
    C296   H299      1.08135      .   S
    C296   C297      1.38686      .   S
    C2286  C2282     1.48336      .   S
    H2130  C2118     1.08137      .   S
    H3570  C3558     1.08167      .   S
    C3630  C3626     1.48674      .   S
    C2118  C2114     1.48481      .   S
    H3474  C3462     1.08131      .   S
    H2226  C2214     1.08194      .   S
    C3558  C3554     1.48689      .   S
    H2202  C2190     1.08122      .   S
    C3462  C3458     1.48521      .   S
    C2214  C2210     1.48510      .   S
    C2190  C2186     1.48017      .   S
    H3546  C3534     1.08232      .   S
    C3534  C3530     1.48375      .   S
    C2282  C2281     1.39898      .   S
    C2282  C2283     1.40829      .   S
    H2295  C2281     1.08379      .   S
    C2114  C2115     1.40806      .   S
    C2114  C2113     1.40243      .   S
    C3626  C3625     1.40209      .   S
    C3626  C3627     1.40971      .   S
    H2128  C2115     1.08138      .   S
    H3639  C3625     1.08396      .   S
    C3554  C3555     1.40716      .   S
    C3554  C3553     1.40294      .   S
    H2296  C2283     1.08113      .   S
    C3458  C3459     1.40682      .   S
    C3458  C3457     1.40231      .   S
    C2186  C2187     1.40757      .   S
    C2186  C2185     1.40020      .   S
    C2210  C2211     1.40811      .   S
    C2210  C2209     1.39901      .   S
    H3472  C3459     1.08115      .   S
    H2224  C2211     1.08096      .   S
    H2200  C2187     1.08151      .   S
    H3640  C3627     1.08028      .   S
    H3568  C3555     1.08165      .   S
    H2127  C2113     1.08386      .   S
    H3567  C3553     1.08355      .   S
    C3530  C3531     1.40746      .   S
    C3530  C3529     1.39970      .   S
    H3471  C3457     1.08328      .   S
    H3544  C3531     1.08121      .   S
    C2281  C2280     1.39199      .   S
    H2199  C2185     1.08352      .   S
    H2223  C2209     1.08339      .   S
    C2115  C2116     1.39870      .   S
    C2283  C2284     1.40298      .   S
    H3543  C3529     1.08397      .   S
    C3625  C3624     1.39537      .   S
    C2113  C2112     1.39618      .   S
    C3459  C3460     1.39687      .   S
    C3555  C3556     1.39825      .   S
    C3627  C3628     1.40180      .   S
    C2187  C2188     1.39715      .   S
    C2211  C2212     1.40199      .   S
    C3553  C3552     1.39942      .   S
    C3457  C3456     1.39860      .   S
    C2185  C2184     1.39462      .   S
    C2209  C2208     1.39411      .   S
    C3531  C3532     1.40024      .   S
    C3529  C3528     1.39486      .   S
    C2280  H2294     1.07944      .   S
    C2280  C2285     1.41137      .   S
    C2116  H2129     1.08173      .   S
    C2116  C2117     1.40512      .   S
    C2284  H2297     1.08144      .   S
    C2284  C2285     1.40985      .   S
    C3624  H3638     1.08060      .   S
    C3624  C3629     1.40718      .   S
    C2112  H2126     1.08221      .   S
    C2112  C2117     1.40521      .   S
    C3460  H3473     1.08097      .   S
    C3460  C3461     1.40690      .   S
    C2188  H2201     1.08111      .   S
    C2188  C2189     1.40553      .   S
    C3556  H3569     1.08094      .   S
    C3556  C3557     1.40749      .   S
    C2212  H2225     1.08091      .   S
    C2212  C2213     1.40998      .   S
    C3552  H3566     1.08071      .   S
    C3552  C3557     1.40780      .   S
    C3628  H3641     1.08124      .   S
    C3628  C3629     1.40669      .   S
    C3456  H3470     1.08064      .   S
    C3456  C3461     1.40743      .   S
    C2184  H2198     1.08063      .   S
    C2184  C2189     1.40727      .   S
    C2208  H2222     1.07978      .   S
    C2208  C2213     1.41170      .   S
    C3532  H3545     1.08117      .   S
    C3532  C3533     1.41041      .   S
    C3528  H3542     1.07936      .   S
    C3528  C3533     1.41150      .   S
