# CIF file generated by openbabel 2.4.90, see http://openbabel.sf.net
data_I
_chemical_name_common ''
_cell_length_a 11.6884
_cell_length_b 5.5643
_cell_length_c 22.8159
_cell_angle_alpha 90
_cell_angle_beta 100.691
_cell_angle_gamma 90
_space_group_name_H-M_alt 'P 1'
_space_group_name_Hall 'P 1'
loop_
    _symmetry_equiv_pos_as_xyz
    x,y,z
loop_
    _atom_site_label
    _atom_site_type_symbol
    _atom_site_fract_x
    _atom_site_fract_y
    _atom_site_fract_z
    _atom_site_occupancy
    S0      S    0.10145   0.96454   0.39330   1.000
    O1      O    0.23970   0.91505   0.69092   1.000
    O2      O    0.23621   0.52343   0.67212   1.000
    O3      O    0.54211   0.91879   0.24461   1.000
    O4      O    0.51296   0.52383   0.25348   1.000
    O5      O    0.08446   0.22059   0.38950   1.000
    O6      O    0.00494   0.80562   0.37030   1.000
    C7      C    0.14670   0.89090   0.46929   1.000
    C8      C    0.20595   0.06200   0.50775   1.000
    H9      H    0.22780   0.21110   0.49280   1.000
    C10     C    0.23276   0.01220   0.56837   1.000
    H11     H    0.27220   0.12830   0.59530   1.000
    C12     C    0.20170   0.79140   0.58960   1.000
    C13     C    0.14677   0.61880   0.55025   1.000
    H14     H    0.12870   0.46630   0.56490   1.000
    C15     C    0.11802   0.66700   0.48962   1.000
    H16     H    0.07960   0.54990   0.46260   1.000
    C17     C    0.22619   0.73840   0.65525   1.000
    C18     C    0.21873   0.89080   0.35811   1.000
    C19     C    0.30779   0.05910   0.35955   1.000
    H20     H    0.30710   0.20510   0.38110   1.000
    C21     C    0.39763   0.00980   0.32897   1.000
    H22     H    0.45760   0.12450   0.32850   1.000
    C23     C    0.39952   0.79180   0.29902   1.000
    C24     C    0.31163   0.62320   0.29972   1.000
    H25     H    0.31460   0.47320   0.28010   1.000
    C26     C    0.21940   0.67210   0.32884   1.000
    H27     H    0.15860   0.55880   0.32870   1.000
    C28     C    0.49352   0.74100   0.26289   1.000
    S29     S    0.39855   0.46454   0.10670   1.000
    O30     O    0.26030   0.41505   0.80908   1.000
    O31     O    0.26379   0.02343   0.82788   1.000
    O32     O    0.95789   0.41879   0.25539   1.000
    O33     O    0.98704   0.02383   0.24652   1.000
    O34     O    0.41554   0.72059   0.11050   1.000
    O35     O    0.49506   0.30562   0.12970   1.000
    C36     C    0.35330   0.39090   0.03071   1.000
    C37     C    0.29405   0.56200   0.99225   1.000
    H38     H    0.27220   0.71110   0.00720   1.000
    C39     C    0.26724   0.51220   0.93163   1.000
    H40     H    0.22780   0.62830   0.90470   1.000
    C41     C    0.29830   0.29140   0.91040   1.000
    C42     C    0.35323   0.11880   0.94975   1.000
    H43     H    0.37130   0.96630   0.93510   1.000
    C44     C    0.38198   0.16700   0.01038   1.000
    H45     H    0.42040   0.04990   0.03740   1.000
    C46     C    0.27381   0.23840   0.84475   1.000
    C47     C    0.28127   0.39080   0.14189   1.000
    C48     C    0.19221   0.55910   0.14045   1.000
    H49     H    0.19290   0.70510   0.11890   1.000
    C50     C    0.10237   0.50980   0.17103   1.000
    H51     H    0.04240   0.62450   0.17150   1.000
    C52     C    0.10048   0.29180   0.20098   1.000
    C53     C    0.18837   0.12320   0.20028   1.000
    H54     H    0.18540   0.97320   0.21990   1.000
    C55     C    0.28060   0.17210   0.17116   1.000
    H56     H    0.34140   0.05880   0.17130   1.000
    C57     C    0.00648   0.24100   0.23711   1.000
    S58     S    0.89855   0.03546   0.60670   1.000
    O59     O    0.76030   0.08495   0.30908   1.000
    O60     O    0.76379   0.47657   0.32788   1.000
    O61     O    0.45789   0.08121   0.75539   1.000
    O62     O    0.48704   0.47617   0.74652   1.000
    O63     O    0.91554   0.77941   0.61050   1.000
    O64     O    0.99506   0.19438   0.62970   1.000
    C65     C    0.85330   0.10910   0.53071   1.000
    C66     C    0.79405   0.93800   0.49225   1.000
    H67     H    0.77220   0.78890   0.50720   1.000
    C68     C    0.76724   0.98780   0.43163   1.000
    H69     H    0.72780   0.87170   0.40470   1.000
    C70     C    0.79830   0.20860   0.41040   1.000
    C71     C    0.85323   0.38120   0.44975   1.000
    H72     H    0.87130   0.53370   0.43510   1.000
    C73     C    0.88198   0.33300   0.51038   1.000
    H74     H    0.92040   0.45010   0.53740   1.000
    C75     C    0.77381   0.26160   0.34475   1.000
    C76     C    0.78127   0.10920   0.64189   1.000
    C77     C    0.69221   0.94090   0.64045   1.000
    H78     H    0.69290   0.79490   0.61890   1.000
    C79     C    0.60237   0.99020   0.67103   1.000
    H80     H    0.54240   0.87550   0.67150   1.000
    C81     C    0.60048   0.20820   0.70098   1.000
    C82     C    0.68837   0.37680   0.70028   1.000
    H83     H    0.68540   0.52680   0.71990   1.000
    C84     C    0.78060   0.32790   0.67116   1.000
    H85     H    0.84140   0.44120   0.67130   1.000
    C86     C    0.50648   0.25900   0.73711   1.000
    S87     S    0.60145   0.53546   0.89330   1.000
    O88     O    0.73970   0.58495   0.19092   1.000
    O89     O    0.73621   0.97657   0.17212   1.000
    O90     O    0.04211   0.58121   0.74461   1.000
    O91     O    0.01296   0.97617   0.75348   1.000
    O92     O    0.58446   0.27941   0.88950   1.000
    O93     O    0.50494   0.69438   0.87030   1.000
    C94     C    0.64670   0.60910   0.96929   1.000
    C95     C    0.70595   0.43800   0.00775   1.000
    H96     H    0.72780   0.28890   0.99280   1.000
    C97     C    0.73276   0.48780   0.06837   1.000
    H98     H    0.77220   0.37170   0.09530   1.000
    C99     C    0.70170   0.70860   0.08960   1.000
    C100    C    0.64677   0.88120   0.05025   1.000
    H101    H    0.62870   0.03370   0.06490   1.000
    C102    C    0.61802   0.83300   0.98962   1.000
    H103    H    0.57960   0.95010   0.96260   1.000
    C104    C    0.72619   0.76160   0.15525   1.000
    C105    C    0.71873   0.60920   0.85811   1.000
    C106    C    0.80779   0.44090   0.85955   1.000
    H107    H    0.80710   0.29490   0.88110   1.000
    C108    C    0.89763   0.49020   0.82897   1.000
    H109    H    0.95760   0.37550   0.82850   1.000
    C110    C    0.89952   0.70820   0.79902   1.000
    C111    C    0.81163   0.87680   0.79972   1.000
    H112    H    0.81460   0.02680   0.78010   1.000
    C113    C    0.71940   0.82790   0.82884   1.000
    H114    H    0.65860   0.94120   0.82870   1.000
    C115    C    0.99352   0.75900   0.76289   1.000
loop_
    _geom_bond_atom_site_label_1
    _geom_bond_atom_site_label_2
    _geom_bond_distance
    _geom_bond_site_symmetry_2
    _ccdc_geom_bond_type
    H38    C37       0.94984  1_554   S
    C95    C97       1.38822      .   S
    C95    C94       1.38944  1_554   S
    C95    H96       0.94984  1_554   S
    C44    C36       1.39189      .   S
    C44    H45       0.95056      .   S
    C44    C42       1.38780  1_554   S
    C36    S29       1.76448      .   S
    C36    C37       1.38944  1_554   S
    C100   H101      0.95004  1_565   S
    C100   C99       1.38808      .   S
    C100   C102      1.38780  1_554   S
    C97    C99       1.39324      .   S
    C97    H98       0.94989      .   S
    C99    C104      1.50114      .   S
    S29    O34       1.43890      .   S
    S29    O35       1.45265      .   S
    S29    C47       1.76082      .   S
    H49    C48       0.95040      .   S
    C48    C47       1.39606      .   S
    C48    C50       1.39161      .   S
    C47    C55       1.38884      .   S
    C104   O89       1.25536      .   S
    C104   O88       1.26718      .   S
    C50    H51       0.94951      .   S
    C50    C52       1.39443      .   S
    C55    H56       0.94955      .   S
    C55    C53       1.39403      .   S
    C53    C52       1.39348      .   S
    C53    H54       0.95078  1_545   S
    C52    C57       1.51744      .   S
    C57    O33       1.25541  1_455   S
    C57    O32       1.25022  1_455   S
    O3     C28       1.25022      .   S
    O4     C28       1.25541      .   S
    C28    C23       1.51744      .   S
    H25    C24       0.95078      .   S
    C23    C24       1.39348      .   S
    C23    C21       1.39443  1_565   S
    C24    C26       1.39403      .   S
    O59    C75       1.26718      .   S
    O60    C75       1.25536      .   S
    H22    C21       0.94951      .   S
    H27    C26       0.94955      .   S
    C26    C18       1.38884      .   S
    C21    C19       1.39161      .   S
    C75    C70       1.50114      .   S
    C18    C19       1.39606  1_565   S
    C18    S0        1.76082      .   S
    C19    H20       0.95040      .   S
    O6     S0        1.45265      .   S
    O5     S0        1.43890  1_545   S
    S0     C7        1.76448      .   S
    H69    C68       0.94989      .   S
    C70    C68       1.39324  1_545   S
    C70    C71       1.38808      .   S
    C68    C66       1.38822      .   S
    H72    C71       0.95004      .   S
    C71    C73       1.38780      .   S
    H16    C15       0.95056      .   S
    C7     C15       1.39189      .   S
    C7     C8        1.38944  1_565   S
    C15    C13       1.38780      .   S
    C66    H67       0.94984      .   S
    C66    C65       1.38944  1_565   S
    H9     C8        0.94984      .   S
    C8     C10       1.38822      .   S
    C73    C65       1.39189      .   S
    C73    H74       0.95056      .   S
    C65    S58       1.76448      .   S
    C13    H14       0.95004      .   S
    C13    C12       1.38808      .   S
    C10    C12       1.39324  1_545   S
    C10    H11       0.94989      .   S
    C12    C17       1.50114      .   S
    S58    O63       1.43890  1_545   S
    S58    O64       1.45265      .   S
    S58    C76       1.76082      .   S
    H78    C77       0.95040      .   S
    C77    C76       1.39606  1_565   S
    C77    C79       1.39161      .   S
    C76    C84       1.38884      .   S
    C17    O2        1.25536      .   S
    C17    O1        1.26718      .   S
    C79    H80       0.94951      .   S
    C79    C81       1.39443  1_565   S
    C84    H85       0.94955      .   S
    C84    C82       1.39403      .   S
    C82    C81       1.39348      .   S
    C82    H83       0.95078      .   S
    C81    C86       1.51744      .   S
    C86    O62       1.25541      .   S
    C86    O61       1.25022      .   S
    O90    C115      1.25022  1_455   S
    O91    C115      1.25541  1_455   S
    C115   C110      1.51744      .   S
    H112   C111      0.95078  1_545   S
    C110   C111      1.39348      .   S
    C110   C108      1.39443      .   S
    C111   C113      1.39403      .   S
    O30    C46       1.26718      .   S
    O31    C46       1.25536      .   S
    H109   C108      0.94951      .   S
    H114   C113      0.94955      .   S
    C113   C105      1.38884      .   S
    C108   C106      1.39161      .   S
    C46    C41       1.50114      .   S
    C105   C106      1.39606      .   S
    C105   S87       1.76082      .   S
    C106   H107      0.95040      .   S
    O93    S87       1.45265      .   S
    O92    S87       1.43890      .   S
    S87    C94       1.76448      .   S
    H40    C39       0.94989      .   S
    C41    C39       1.39324      .   S
    C41    C42       1.38808      .   S
    C39    C37       1.38822      .   S
    H43    C42       0.95004  1_565   S
    H103   C102      0.95056      .   S
    C94    C102      1.39189      .   S
