# CIF file generated by openbabel 2.4.90, see http://openbabel.sf.net
data_I
_chemical_name_common ''
_cell_length_a 14.76
_cell_length_b 14.768
_cell_length_c 14.7681
_cell_angle_alpha 119.862
_cell_angle_beta 119.897
_cell_angle_gamma 90.143
_space_group_name_H-M_alt 'P 1'
_space_group_name_Hall 'P 1'
loop_
    _symmetry_equiv_pos_as_xyz
    x,y,z
loop_
    _atom_site_label
    _atom_site_type_symbol
    _atom_site_fract_x
    _atom_site_fract_y
    _atom_site_fract_z
    _atom_site_occupancy
    Zr0     Zr   0.10953   0.12167   0.98732   1.000
    Zr1     Zr   0.87102   0.88213   0.74782   1.000
    Zr2     Zr   0.87258   0.11833   0.99071   1.000
    H3      H    0.00914   0.17003   0.35988   1.000
    Zr4     Zr   0.11437   0.11753   0.22665   1.000
    Zr5     Zr   0.11279   0.88109   0.98312   1.000
    Zr6     Zr   0.87625   0.87842   0.98790   1.000
    Zr7     Zr   0.53260   0.02049   0.75924   1.000
    Zr8     Zr   0.99758   0.96010   0.94932   1.000
    Zr9     Zr   0.97039   0.89608   0.72029   1.000
    Zr10    Zr   0.70288   0.81056   0.38102   1.000
    Zr11    Zr   0.96078   0.90042   0.97431   1.000
    H12     H    0.90735   0.83093   0.45317   1.000
    H13     H    0.16317   0.63409   0.70597   1.000
    H14     H    0.35303   0.07802   0.51815   1.000
    H15     H    0.61974   0.90632   0.45314   1.000
    H16     H    0.36220   0.83256   0.91250   1.000
    H17     H    0.89454   0.09613   0.80162   1.000
    H18     H    0.13211   0.40869   0.99191   1.000
    H19     H    0.90124   0.09010   0.17789   1.000
    H20     H    0.27503   0.09536   0.17283   1.000
    H21     H    0.90032   0.71810   0.79734   1.000
    H22     H    0.43616   0.11376   0.71772   1.000
    H23     H    0.58136   0.17950   0.80582   1.000
    H24     H    0.83259   0.37884   0.26540   1.000
    H25     H    0.80257   0.02387   0.82193   1.000
    H26     H    0.13256   0.27620   0.72441   1.000
    H27     H    0.18762   0.21644   0.81151   1.000
    H28     H    0.05952   0.23642   0.77227   1.000
    H29     H    0.77169   0.48473   0.00935   1.000
    H30     H    0.85118   0.42458   0.08822   1.000
    H31     H    0.72059   0.47285   0.30481   1.000
    H32     H    0.75764   0.56147   0.46377   1.000
    H33     H    0.78605   0.61874   0.39772   1.000
    H34     H    0.22701   0.52836   0.99225   1.000
    H35     H    0.23004   0.66843   0.07325   1.000
    H36     H    0.14633   0.58233   0.90562   1.000
    H37     H    0.36793   0.19980   0.97194   1.000
    H38     H    0.51405   0.26828   0.08675   1.000
    H39     H    0.85997   0.59799   0.99680   1.000
    H40     H    0.61072   0.15655   0.03666   1.000
    H41     H    0.23105   0.88835   0.20045   1.000
    H42     H    0.79357   0.08882   0.33134   1.000
    H43     H    0.02070   0.86428   0.08660   1.000
    H44     H    0.95236   0.27167   0.33209   1.000
    H45     H    0.71961   0.98271   0.84851   1.000
    H46     H    0.63857   0.68019   0.61264   1.000
    H47     H    0.65815   0.98580   0.05245   1.000
    H48     H    0.83073   0.04282   0.22502   1.000
    H49     H    0.42614   0.02440   0.07097   1.000
    H50     H    0.18745   0.24262   0.05175   1.000
    H51     H    0.97505   0.91430   0.36281   1.000
    H52     H    0.77389   0.24798   0.36055   1.000
    H53     H    0.49736   0.08383   0.08066   1.000
    H54     H    0.05434   0.73913   0.16637   1.000
    H55     H    0.85171   0.84583   0.82281   1.000
    H56     H    0.06121   0.02970   0.69812   1.000
    H57     H    0.94355   0.91201   0.52393   1.000
    H58     H    0.97406   0.97124   0.89668   1.000
    H59     H    0.16542   0.13401   0.64593   1.000
    C60     C    0.78379   0.54616   0.40109   1.000
    C61     C    0.17681   0.58291   0.99068   1.000
    C62     C    0.44248   0.20626   0.05190   1.000
    C63     C    0.99426   0.00382   0.68567   1.000
    C64     C    0.68081   0.99614   0.68670   1.000
    C65     C    0.99095   0.30867   0.99681   1.000
    C66     C    0.99973   0.30677   0.29574   1.000
    C67     C    0.29161   0.00063   0.97646   1.000
    C68     C    0.00050   0.69733   0.99050   1.000
    C69     C    0.00034   0.98959   0.29022   1.000
    C70     C    0.29592   0.99371   0.28650   1.000
    C71     C    0.68647   0.69736   0.68578   1.000
    C72     C    0.68561   0.99134   0.98132   1.000
    C73     C    0.29188   0.30953   0.28933   1.000
    C74     C    0.99341   0.70173   0.67748   1.000
    C75     C    0.99924   0.00407   0.58729   1.000
    C76     C    0.57825   0.99485   0.58578   1.000
    C77     C    0.99027   0.40998   0.99724   1.000
    C78     C    0.00385   0.41159   0.39699   1.000
    C79     C    0.39234   0.00155   0.97569   1.000
    C80     C    0.00280   0.59768   0.99340   1.000
    C81     C    0.99973   0.98781   0.39016   1.000
    C82     C    0.39517   0.99037   0.38598   1.000
    C83     C    0.58118   0.98786   0.97452   1.000
    C84     C    0.99163   0.60065   0.57470   1.000
    C85     C    0.94740   0.90298   0.46698   1.000
    C86     C    0.50308   0.04475   0.60773   1.000
    C87     C    0.07301   0.45203   0.99366   1.000
    C88     C    0.90493   0.43636   0.36312   1.000
    C89     C    0.46147   0.09631   0.01114   1.000
    C90     C    0.91980   0.55537   0.99649   1.000
    C91     C    0.05247   0.08870   0.51088   1.000
    C92     C    0.46985   0.93966   0.36368   1.000
    C93     C    0.55463   0.08575   0.00923   1.000
    C94     C    0.89503   0.52940   0.44832   1.000
    C95     C    0.09089   0.57658   0.60819   1.000
    C96     C    0.51113   0.89261   0.93723   1.000
    C97     C    0.08299   0.54542   0.99245   1.000
    C98     C    0.94596   0.89121   0.36630   1.000
    C99     C    0.41304   0.04084   0.50571   1.000
    C100    C    0.05409   0.10050   0.61168   1.000
    C101    C    0.55979   0.94351   0.46568   1.000
    C102    C    0.10084   0.48373   0.52279   1.000
    C103    C    0.41821   0.90326   0.93965   1.000
    C104    C    0.91067   0.46281   0.99938   1.000
    C105    C    0.81871   0.42710   0.00478   1.000
    C106    C    0.11131   0.21360   0.73648   1.000
    C107    C    0.51363   0.09953   0.73178   1.000
    C108    C    0.72229   0.83032   0.81137   1.000
    C109    C    0.99707   0.11114   0.29427   1.000
    C110    C    0.51762   0.01231   0.58913   1.000
    C111    C    0.66117   0.71827   0.77640   1.000
    C112    C    0.03690   0.44696   0.62813   1.000
    C113    C    0.70112   0.14497   0.31405   1.000
    C114    C    0.90395   0.05042   0.51721   1.000
    C115    C    0.04069   0.44033   0.22695   1.000
    C116    C    0.82760   0.45914   0.40480   1.000
    C117    C    0.05375   0.33636   0.44424   1.000
    C118    C    0.06016   0.28752   0.51520   1.000
    C119    C    0.84584   0.64625   0.61851   1.000
    C120    C    0.57768   0.66286   0.35998   1.000
    C121    C    0.09418   0.40390   0.08531   1.000
    C122    C    0.98618   0.35272   0.48385   1.000
    C123    C    0.06841   0.46252   0.73421   1.000
    C124    C    0.09136   0.41910   0.61102   1.000
    C125    C    0.07895   0.30030   0.93710   1.000
    C126    C    0.93171   0.37003   0.06350   1.000
    C127    C    0.46689   0.11253   0.92637   1.000
    C128    C    0.94263   0.80205   0.91691   1.000
    C129    C    0.09501   0.90029   0.91361   1.000
    C130    C    0.06160   0.67185   0.06915   1.000
    C131    C    0.85000   0.24341   0.07419   1.000
    C132    C    0.62937   0.60210   0.50835   1.000
    C133    C    0.48566   0.96124   0.95364   1.000
    C134    C    0.26277   0.11815   0.39174   1.000
    C135    C    0.72825   0.97157   0.68809   1.000
    C136    C    0.19797   0.18673   0.36683   1.000
    C137    C    0.83903   0.81694   0.09740   1.000
    C138    C    0.23343   0.05109   0.33740   1.000
    C139    C    0.51821   0.01889   0.78727   1.000
    C140    C    0.84065   0.05150   0.16435   1.000
    C141    C    0.13046   0.80357   0.03770   1.000
    C142    C    0.76527   0.88639   0.43547   1.000
    O143    O    0.04201   0.14912   0.08852   1.000
    O144    O    0.04068   0.95225   0.88625   1.000
    O145    O    0.04480   0.94908   0.08540   1.000
    O146    O    0.06910   0.08104   0.80290   1.000
    O147    O    0.72229   0.92098   0.64840   1.000
    O148    O    0.91437   0.26630   0.99563   1.000
    O149    O    0.07406   0.26390   0.33125   1.000
    O150    O    0.25370   0.92284   0.97724   1.000
    O151    O    0.07447   0.73712   0.98657   1.000
    O152    O    0.92273   0.91436   0.17331   1.000
    O153    O    0.25833   0.07231   0.32612   1.000
    O154    O    0.72883   0.73706   0.80299   1.000
    O155    O    0.72802   0.91670   0.98432   1.000
    O156    O    0.25489   0.26793   0.32749   1.000
    O157    O    0.07146   0.74005   0.79345   1.000
    O158    O    0.25282   0.26804   0.17246   1.000
    O159    O    0.91659   0.74259   0.64339   1.000
    O160    O    0.72720   0.07181   0.98672   1.000
    O161    O    0.92252   0.73569   0.99027   1.000
    O162    O    0.07636   0.06844   0.32826   1.000
    O163    O    0.25544   0.91888   0.16917   1.000
    O164    O    0.91559   0.92684   0.64643   1.000
    O165    O    0.72244   0.07324   0.80361   1.000
    O166    O    0.91956   0.26530   0.17953   1.000
    O167    O    0.25082   0.07719   0.97810   1.000
    O168    O    0.72431   0.73669   0.64651   1.000
    O169    O    0.06809   0.26948   0.99539   1.000
    O170    O    0.92247   0.06868   0.85451   1.000
    O171    O    0.92760   0.06430   0.12388   1.000
    O172    O    0.19469   0.06794   0.11983   1.000
    O173    O    0.92636   0.79837   0.85078   1.000
    O174    O    0.84360   0.94945   0.88927   1.000
    O175    O    0.85444   0.84910   0.41320   1.000
    O176    O    0.21332   0.16325   0.33043   1.000
    O177    O    0.30464   0.28626   0.15184   1.000
    O178    O    0.22003   0.29244   0.13654   1.000
    O179    O    0.00371   0.39229   0.50897   1.000
    O180    O    0.02784   0.23610   0.72436   1.000
    O181    O    0.78217   0.64116   0.45105   1.000
    O182    O    0.99116   0.39555   0.16655   1.000
    O183    O    0.01227   0.22404   0.02653   1.000
    O184    O    0.92760   0.38355   0.24967   1.000
    O185    O    0.77836   0.65045   0.26247   1.000
    O186    O    0.11286   0.71365   0.08487   1.000
    O187    O    0.10211   0.53783   0.66121   1.000
    O188    O    0.91532   0.38890   0.89751   1.000
    O189    O    0.76944   0.05780   0.33739   1.000
    O190    O    0.81996   0.20583   0.93904   1.000
loop_
    _geom_bond_atom_site_label_1
    _geom_bond_atom_site_label_2
    _geom_bond_distance
    _geom_bond_site_symmetry_2
    _ccdc_geom_bond_type
    C105   H29       1.09681      .   S
    C105   C126      1.88080      .   S
    C105   H30       1.09843      .   S
    C105   C104      1.50766  1_554   S
    C93    C89       1.39686      .   S
    C93    H40       1.08734      .   S
    C93    C127      1.49516  1_554   S
    C93    C83       1.40404  1_544   S
    C89    H53       1.00764      .   S
    C89    C127      1.42455  1_554   S
    C89    C79       1.41575  1_554   S
    O183   O143      1.69281      .   S
    O183   Zr0       2.15623  1_554   S
    C141   O186      1.84817      .   S
    C141   Zr5       1.65508  1_554   S
    C141   O151      0.92309  1_554   S
    H50    O178      0.90605      .   S
    C62    H38       1.09702      .   S
    C62    C127      1.89621  1_554   S
    C62    H37       1.09831  1_554   S
    H47    C83       1.16097  1_554   S
    C126   O182      1.15056      .   S
    C126   O148      1.27671  1_554   S
    C130   O186      0.82908      .   S
    C130   H54       1.33916      .   S
    C130   C68       1.30251  1_554   S
    C130   C80       1.00582  1_554   S
    H49    C79       1.08133  1_554   S
    H35    C61       1.09802  1_554   S
    C131   O166      1.21824      .   S
    C131   O190      1.58160  1_554   S
    C131   Zr2       1.78544  1_554   S
    C121   C87       1.72393  1_554   S
    C121   C65       1.47700  1_454   S
    C121   C77       1.47659  1_454   S
    O145   H43       1.31196      .   S
    O145   Zr11      1.24065  1_454   S
    O143   Zr0       2.06752  1_554   S
    C137   O152      1.36281      .   S
    O172   H20       0.96927      .   S
    O178   O158      0.76209      .   S
    O177   O158      1.03098      .   S
    C140   H19       0.93297      .   S
    C140   H48       1.04202      .   S
    O182   C115      0.72634  1_655   S
    O163   H41       0.95853      .   S
    O163   C70       1.28000      .   S
    O152   C69       1.28036  1_655   S
    O166   C66       1.28292      .   S
    Zr4    O176      1.29271      .   S
    O185   Zr10      2.78077      .   S
    H24    C88       1.08761      .   S
    C70    O153      1.28377  1_565   S
    C73    O156      1.28176      .   S
    C69    C109      1.76764  1_465   S
    C69    O162      1.28227  1_565   S
    C69    C81       1.49365  1_455   S
    C109   O162      1.32388  1_655   S
    C109   H3        0.84556  1_655   S
    C66    O149      1.28063  1_655   S
    C66    H44       1.30194      .   S
    C66    C78       1.49656  1_655   S
    H31    C60       1.09717      .   S
    C113   H52       1.46823      .   S
    O153   C138      0.61109      .   S
    O176   C136      0.62989      .   S
    C138   C134      0.81993      .   S
    C120   Zr10      2.64604      .   S
    H51    C98       0.58486      .   S
    C88    C78       1.40450  1_655   S
    C88    C94       1.39825      .   S
    C92    C82       1.41588      .   S
    C92    C101      1.39838      .   S
    C98    C85       1.39732      .   S
    Zr10   C142      1.05283      .   S
    C82    C99       1.40473  1_565   S
    C81    C91       1.40351  1_665   S
    C78    C102      1.41633      .   S
    H33    O181      0.72014      .   S
    C60    C116      1.45311      .   S
    C60    O181      1.22489      .   S
    C60    H32       1.09779      .   S
    C116   C94       1.08312      .   S
    O175   H12       0.85414      .   S
    O175   C85       1.19388      .   S
    C117   C122      1.35551  1_455   S
    C94    C84       1.41688      .   S
    H15    C101      1.08785      .   S
    C101   C76       1.40463      .   S
    C85    H57       0.81511      .   S
    C85    C75       1.40309  1_565   S
    C122   O179      0.48344  1_655   S
    C122   C118      1.50973  1_655   S
    C99    H14       1.08811      .   S
    C99    C86       1.39872      .   S
    O179   C124      1.24957      .   S
    C91    C100      1.39753      .   S
    C114   C75       1.66645      .   S
    C102   C95       1.39854      .   S
    C84    C95       1.40455  1_655   S
    C84    C74       1.49554      .   S
    C76    C110      0.94989  1_565   S
    C75    C100      1.41630  1_655   S
    C75    C63       1.49268      .   S
    C110   C86       0.52847      .   S
    C86    C107      1.50797      .   S
    C95    O187      1.13379      .   S
    C95    H13       1.08771      .   S
    C124   C112      0.98981      .   S
    C100   H59       1.45568      .   S
    C100   C106      1.50852      .   S
    H46    C71       0.83422      .   S
    C119   O159      1.52953      .   S
    C112   O187      1.35567      .   S
    C112   C123      1.27991      .   S
    O159   C74       1.28066      .   S
    O164   C63       1.28184  1_565   S
    O164   Zr9       1.29084      .   S
    O168   C71       1.28154      .   S
    O147   C135      0.64936      .   S
    C74    O157      1.28269  1_655   S
    C63    H56       0.95040  1_655   S
    C63    O146      1.28030  1_655   S
    C71    O154      1.28046      .   S
    C64    C135      0.78529      .   S
    C64    O165      1.27914  1_565   S
    H22    C107      1.09669      .   S
    Zr9    Zr1       1.74210      .   S
    O180   C106      1.22553      .   S
    O180   H28       0.62140      .   S
    H26    C106      1.09690      .   S
    C107   Zr7       1.40177      .   S
    C107   H23       1.09918      .   S
    C106   H27       1.09886      .   S
    Zr7    C139      0.56084      .   S
    C111   O154      0.85308      .   S
    H21    O173      0.96928      .   S
    H17    O170      0.96929      .   S
    O165   H25       1.37308      .   S
    H45    Zr2       2.14046  1_565   S
    O173   C128      0.85303      .   S
    O144   C129      1.17645      .   S
    O144   Zr8       1.33005  1_455   S
    O174   Zr2       2.06944  1_565   S
    H58    Zr8       0.78129      .   S
    O188   C77       1.18634      .   S
    O188   C104      1.38841      .   S
    H36    C61       1.09833      .   S
    H16    C103      1.08753      .   S
    C129   Zr5       1.10671      .   S
    C128   Zr11      1.20250      .   S
    C125   O169      1.22529      .   S
    C96    C103      1.39691      .   S
    C96    C133      1.03696      .   S
    O190   O148      1.23588      .   S
    C103   C133      1.17545      .   S
    C103   C79       1.40431  1_565   S
    Zr8    Zr11      1.31504      .   S
    C133   C83       1.29625      .   S
    Zr11   Zr6       1.41957      .   S
    C79    C67       1.49255      .   S
    C67    O150      1.28428  1_545   S
    C67    O167      1.27753      .   S
    C72    O155      1.27799      .   S
    C72    O160      1.28399  1_565   S
    O151   C68       1.27852      .   S
    O161   C68       1.28334  1_655   S
    C61    H34       1.09681      .   S
    C61    C97       1.50715      .   S
    H18    C87       1.08630      .   S
    C97    C80       1.41672      .   S
    C97    C87       1.39654      .   S
    C80    C90       1.40486  1_455   S
    C87    C77       1.40468  1_455   S
    O169   C65       1.28327  1_455   S
    C90    H39       1.08626      .   S
    C90    C104      1.39692      .   S
    C77    C104      1.41673      .   S
    O143   Zr2       2.07036  1_454   S
    O143   Zr4       2.07312      .   S
    O143   Zr8       2.31969  1_444   S
    O144   Zr0       2.06806  1_565   S
    O144   Zr1       2.07317  1_455   S
    O144   Zr5       2.06605      .   S
    O144   Zr9       1.79095  1_455   S
    O144   Zr11      2.48663  1_455   S
    O144   H58       1.08568  1_455   S
    O145   Zr4       2.06848  1_565   S
    O145   Zr5       2.07427  1_554   S
    O145   Zr6       2.06667  1_454   S
    O145   Zr8       1.86573  1_454   S
    O146   Zr0       2.21007      .   S
    O146   Zr9       2.44179  1_445   S
    O146   H56       1.27843      .   S
    O147   Zr1       2.22173      .   S
    O147   C64       1.28460      .   S
    O148   Zr2       2.22518      .   S
    O148   C65       1.27884      .   S
    O148   O183      1.52204  1_656   S
    O149   Zr4       2.23835      .   S
    O149   C117      1.65570      .   S
    O150   Zr5       2.22269      .   S
    O151   Zr5       2.23016      .   S
    O151   O186      1.49351  1_556   S
    O152   Zr6       2.21994  1_554   S
    O153   Zr4       2.23410      .   S
    O153   C134      0.82760      .   S
    O153   O176      1.48679      .   S
    O154   Zr6       2.21963      .   S
    O154   C108      1.32829      .   S
    O155   Zr6       2.24272      .   S
    O156   Zr4       2.24875      .   S
    O156   O176      1.69025      .   S
    O157   Zr5       2.24428      .   S
    O158   Zr0       2.22447  1_554   S
    O158   H50       1.36626      .   S
    O158   C73       1.28057      .   S
    O159   Zr1       2.22568      .   S
    O159   Zr9       1.89385      .   S
    O160   Zr2       2.21500      .   S
    O160   Zr7       2.81867      .   S
    O161   Zr6       2.22877      .   S
    O161   Zr11      2.64377      .   S
    O162   Zr4       2.23888      .   S
    O163   Zr5       2.23473  1_554   S
    O163   C141      1.78713      .   S
    O164   Zr1       2.25279      .   S
    O165   Zr2       2.24619      .   S
    O165   Zr7       2.55692      .   S
    O165   C135      1.66366  1_545   S
    O165   O190      1.76703      .   S
    O166   Zr2       2.23726  1_554   S
    O166   O184      1.48724      .   S
    O167   Zr0       2.23605      .   S
    O168   Zr1       2.25563      .   S
    O168   H46       1.22314      .   S
    O168   C132      1.78177      .   S
    O169   Zr0       2.23013      .   S
    O169   C121      1.64736  1_556   S
    O169   O183      1.42219  1_556   S
    O170   Zr0       2.26821  1_655   S
    O170   Zr1       2.26346  1_545   S
    O170   Zr2       2.26632      .   S
    O170   Zr8       2.54128  1_545   S
    O170   Zr9       2.70214  1_545   S
    O171   Zr2       2.26665  1_554   S
    O171   Zr4       2.26961  1_655   S
    O171   Zr6       2.26394  1_544   S
    O171   Zr11      2.59562  1_544   S
    O171   H19       0.96965      .   S
    O171   C140      1.70762      .   S
    O172   Zr0       2.26677  1_554   S
    O172   Zr4       2.26906      .   S
    O172   Zr5       2.27031  1_544   S
    O172   Zr8       2.45388  1_444   S
    O173   Zr1       2.26918      .   S
    O173   Zr5       2.26460  1_655   S
    O173   Zr6       2.27128      .   S
    O173   Zr8       1.98203      .   S
    O173   Zr11      1.48044      .   S
    O173   H55       1.30931      .   S
    O174   Zr1       2.07185      .   S
    O174   Zr6       2.06845      .   S
    O174   Zr8       1.95623      .   S
    O174   Zr11      1.95945      .   S
    O174   H55       1.39348      .   S
    O175   Zr10      2.05390      .   S
    O175   H57       1.26650      .   S
    O175   C142      1.54868      .   S
    O176   C134      1.31921      .   S
    O176   C138      1.72742      .   S
    O177   Zr0       2.68580  1_554   S
    O177   O178      1.16564      .   S
    O178   Zr0       2.17682  1_554   S
    O178   C73       1.82373      .   S
    O183   Zr2       2.24561  1_454   S
    O183   C65       1.50469  1_454   S
    O189   H42       0.64527      .   S
    O189   C113      1.70154      .   S
    O190   Zr2       1.80315      .   S
