# CIF file generated by openbabel 2.4.90, see http://openbabel.sf.net
data_I
_chemical_name_common ''
_cell_length_a 14.76
_cell_length_b 14.768
_cell_length_c 14.7681
_cell_angle_alpha 119.862
_cell_angle_beta 119.897
_cell_angle_gamma 90.143
_space_group_name_H-M_alt 'P 1'
_space_group_name_Hall 'P 1'
loop_
    _symmetry_equiv_pos_as_xyz
    x,y,z
loop_
    _atom_site_label
    _atom_site_type_symbol
    _atom_site_fract_x
    _atom_site_fract_y
    _atom_site_fract_z
    _atom_site_occupancy
    Zr0     Zr   0.10953   0.12167   0.98732   1.000
    Zr1     Zr   0.87102   0.88213   0.74782   1.000
    Zr2     Zr   0.87258   0.11833   0.99071   1.000
    Zr3     Zr   0.11437   0.11753   0.22665   1.000
    Zr4     Zr   0.11279   0.88109   0.98312   1.000
    Zr5     Zr   0.87625   0.87842   0.98790   1.000
    Zr6     Zr   0.53260   0.02049   0.75924   1.000
    Zr7     Zr   0.99758   0.96010   0.94932   1.000
    Zr8     Zr   0.97039   0.89608   0.72029   1.000
    Zr9     Zr   0.96078   0.90042   0.97431   1.000
    H10     H    0.89454   0.09613   0.80162   1.000
    H11     H    0.27503   0.09536   0.17283   1.000
    H12     H    0.02070   0.86428   0.08660   1.000
    H13     H    0.71961   0.98271   0.84851   1.000
    C14     C    0.51821   0.01889   0.78727   1.000
    O15     O    0.04480   0.94908   0.08540   1.000
    O16     O    0.92247   0.06868   0.85451   1.000
    O17     O    0.19469   0.06794   0.11983   1.000
loop_
    _geom_bond_atom_site_label_1
    _geom_bond_atom_site_label_2
    _geom_bond_distance
    _geom_bond_site_symmetry_2
    _ccdc_geom_bond_type
    O15    H12       1.31196      .   S
    O15    Zr9       1.24065  1_454   S
    O17    H11       0.96927      .   S
    Zr8    Zr1       1.74210      .   S
    Zr6    C14       0.56084      .   S
    H10    O16       0.96929      .   S
    H13    Zr2       2.14046  1_565   S
    Zr7    Zr9       1.31504      .   S
    Zr9    Zr5       1.41957      .   S
    O15    Zr3       2.06848  1_565   S
    O15    Zr4       2.07427  1_554   S
    O15    Zr5       2.06667  1_454   S
    O15    Zr7       1.86573  1_454   S
    O16    Zr0       2.26821  1_655   S
    O16    Zr1       2.26346  1_545   S
    O16    Zr2       2.26632      .   S
    O16    Zr7       2.54128  1_545   S
    O16    Zr8       2.70214  1_545   S
    O17    Zr0       2.26677  1_554   S
    O17    Zr3       2.26906      .   S
    O17    Zr4       2.27031  1_544   S
    O17    Zr7       2.45388  1_444   S
