# CIF file generated by openbabel 2.4.90, see http://openbabel.sf.net
data_I
_chemical_name_common ''
_cell_length_a 71.5169
_cell_length_b 71.4927
_cell_length_c 71.6087
_cell_angle_alpha 89.8315
_cell_angle_beta 90.1248
_cell_angle_gamma 89.8689
_space_group_name_H-M_alt 'P 1'
_space_group_name_Hall 'P 1'
loop_
    _symmetry_equiv_pos_as_xyz
    x,y,z
loop_
    _atom_site_label
    _atom_site_type_symbol
    _atom_site_fract_x
    _atom_site_fract_y
    _atom_site_fract_z
    _atom_site_occupancy
    H0      H    0.32894   0.82300   0.83041   1.000
    H1      H    0.33013   0.32448   0.32959   1.000
    H2      H    0.34643   0.33873   0.34425   1.000
    Cu3     Cu   0.32215   0.85570   0.82365   1.000
    Cu4     Cu   0.35713   0.82471   0.82492   1.000
    Cu5     Cu   0.32168   0.82459   0.85831   1.000
    H6      H    0.82907   0.82571   0.32905   1.000
    Cu7     Cu   0.32576   0.35797   0.32496   1.000
    Cu8     Cu   0.35820   0.32388   0.32234   1.000
    Cu9     Cu   0.32584   0.32408   0.35797   1.000
    H10     H    0.34281   0.83932   0.84515   1.000
    Cu11    Cu   0.82435   0.35915   0.82355   1.000
    Cu12    Cu   0.85774   0.32582   0.82325   1.000
    Cu13    Cu   0.82293   0.32620   0.85700   1.000
    H14     H    0.82950   0.32578   0.82879   1.000
    H15     H    0.84449   0.34069   0.84404   1.000
    Cu16    Cu   0.82402   0.85910   0.32435   1.000
    Cu17    Cu   0.85735   0.82586   0.32389   1.000
    Cu18    Cu   0.82190   0.82579   0.35714   1.000
    H19     H    0.84387   0.84026   0.34479   1.000
    Cu20    Cu   0.67318   0.64301   0.32485   1.000
    Cu21    Cu   0.64129   0.67731   0.32397   1.000
    Cu22    Cu   0.67494   0.67549   0.35888   1.000
    H23     H    0.66962   0.67634   0.33075   1.000
    H24     H    0.65363   0.66181   0.34538   1.000
    Cu25    Cu   0.67632   0.14525   0.82275   1.000
    Cu26    Cu   0.63963   0.17480   0.82554   1.000
    Cu27    Cu   0.67807   0.18063   0.85406   1.000
    H28     H    0.66801   0.17836   0.82681   1.000
    H29     H    0.65773   0.16273   0.84510   1.000
    Cu30    Cu   0.17684   0.64261   0.82340   1.000
    Cu31    Cu   0.14325   0.67552   0.82321   1.000
    Cu32    Cu   0.17814   0.67469   0.85720   1.000
    H33     H    0.17147   0.67576   0.82897   1.000
    H34     H    0.15655   0.66054   0.84396   1.000
    Cu35    Cu   0.17496   0.14409   0.31995   1.000
    Cu36    Cu   0.13598   0.16806   0.32957   1.000
    Cu37    Cu   0.17751   0.17754   0.35270   1.000
    H38     H    0.16340   0.17553   0.32695   1.000
    H39     H    0.15833   0.15841   0.34600   1.000
    Cu40    Cu   0.67451   0.35608   0.67508   1.000
    Cu41    Cu   0.64164   0.32215   0.67545   1.000
    Cu42    Cu   0.67628   0.32274   0.64200   1.000
    H43     H    0.66989   0.32261   0.67025   1.000
    H44     H    0.65468   0.33731   0.65476   1.000
    Cu45    Cu   0.67665   0.85802   0.17712   1.000
    Cu46    Cu   0.64236   0.82605   0.17828   1.000
    Cu47    Cu   0.67516   0.82621   0.14255   1.000
    H48     H    0.67037   0.82510   0.17091   1.000
    H49     H    0.65506   0.84108   0.15695   1.000
    Cu50    Cu   0.17489   0.35683   0.17466   1.000
    Cu51    Cu   0.14142   0.32390   0.17613   1.000
    Cu52    Cu   0.17464   0.32359   0.14119   1.000
    H53     H    0.16965   0.32357   0.16945   1.000
    H54     H    0.15417   0.33861   0.15462   1.000
    Cu55    Cu   0.17648   0.85716   0.67396   1.000
    Cu56    Cu   0.14287   0.82401   0.67616   1.000
    Cu57    Cu   0.17681   0.82324   0.64178   1.000
    H58     H    0.17092   0.82377   0.67030   1.000
    H59     H    0.15555   0.83829   0.65484   1.000
    Cu60    Cu   0.32106   0.64553   0.67707   1.000
    Cu61    Cu   0.35858   0.67404   0.67704   1.000
    Cu62    Cu   0.32201   0.68092   0.64595   1.000
    H63     H    0.33056   0.67839   0.67379   1.000
    H64     H    0.34169   0.66264   0.65625   1.000
    Cu65    Cu   0.32472   0.14302   0.17326   1.000
    Cu66    Cu   0.35715   0.17725   0.17366   1.000
    Cu67    Cu   0.32180   0.17702   0.14075   1.000
    H68     H    0.32874   0.17658   0.16885   1.000
    H69     H    0.34384   0.16252   0.15285   1.000
    Cu70    Cu   0.82003   0.64757   0.18108   1.000
    Cu71    Cu   0.85857   0.67394   0.17743   1.000
    Cu72    Cu   0.82222   0.67780   0.14534   1.000
    H73     H    0.83069   0.67926   0.17316   1.000
    H74     H    0.84126   0.66079   0.15819   1.000
    Cu75    Cu   0.82424   0.14396   0.67460   1.000
    Cu76    Cu   0.86080   0.17274   0.66888   1.000
    Cu77    Cu   0.81788   0.18251   0.64868   1.000
    H78     H    0.83331   0.17688   0.67309   1.000
    H79     H    0.83908   0.16392   0.65125   1.000
    Cu80    Cu   0.35909   0.32402   0.67617   1.000
    Cu81    Cu   0.32592   0.35702   0.67839   1.000
    Cu82    Cu   0.32570   0.32374   0.64307   1.000
    H83     H    0.32569   0.32883   0.67140   1.000
    H84     H    0.34021   0.34457   0.65653   1.000
    Cu85    Cu   0.35798   0.82696   0.17645   1.000
    Cu86    Cu   0.32335   0.85874   0.17508   1.000
    Cu87    Cu   0.32576   0.82295   0.14255   1.000
    H88     H    0.32460   0.83028   0.17041   1.000
    H89     H    0.33903   0.84544   0.15486   1.000
    Cu90    Cu   0.85823   0.32495   0.17841   1.000
    Cu91    Cu   0.82573   0.35889   0.17702   1.000
    Cu92    Cu   0.82651   0.32455   0.14316   1.000
    H93     H    0.82530   0.33035   0.17110   1.000
    H94     H    0.84130   0.34507   0.15662   1.000
    Cu95    Cu   0.85603   0.82366   0.67554   1.000
    Cu96    Cu   0.82373   0.85819   0.67369   1.000
    Cu97    Cu   0.82386   0.82270   0.64116   1.000
    H98     H    0.82304   0.82978   0.66920   1.000
    H99     H    0.83896   0.84386   0.65397   1.000
    Cu100   Cu   0.64460   0.67626   0.67372   1.000
    Cu101   Cu   0.67776   0.64275   0.67752   1.000
    Cu102   Cu   0.67684   0.67296   0.63967   1.000
    H103    H    0.67779   0.67022   0.66844   1.000
    H104    H    0.66235   0.65354   0.65559   1.000
    Cu105   Cu   0.64428   0.17437   0.17806   1.000
    Cu106   Cu   0.67714   0.14096   0.17714   1.000
    Cu107   Cu   0.67546   0.17512   0.14271   1.000
    H108    H    0.67720   0.16937   0.17073   1.000
    H109    H    0.66137   0.15428   0.15654   1.000
    Cu110   Cu   0.14386   0.67482   0.17634   1.000
    Cu111   Cu   0.17570   0.64005   0.17645   1.000
    Cu112   Cu   0.17700   0.67464   0.14278   1.000
    H113    H    0.17696   0.66850   0.17088   1.000
    H114    H    0.16128   0.65423   0.15560   1.000
    Cu115   Cu   0.14306   0.17697   0.67506   1.000
    Cu116   Cu   0.17420   0.14165   0.67783   1.000
    Cu117   Cu   0.17619   0.17396   0.64184   1.000
    H118    H    0.17602   0.16952   0.67036   1.000
    H119    H    0.16015   0.15457   0.65603   1.000
    Cu120   Cu   0.35659   0.67637   0.32507   1.000
    Cu121   Cu   0.32318   0.64291   0.32489   1.000
    Cu122   Cu   0.32405   0.67694   0.35892   1.000
    H123    H    0.32334   0.67106   0.33052   1.000
    H124    H    0.33862   0.65579   0.34538   1.000
    Cu125   Cu   0.35656   0.17728   0.82531   1.000
    Cu126   Cu   0.32398   0.14358   0.82535   1.000
    Cu127   Cu   0.32421   0.17869   0.85896   1.000
    H128    H    0.32339   0.17190   0.83084   1.000
    H129    H    0.33863   0.15715   0.84609   1.000
    Cu130   Cu   0.85541   0.67475   0.82140   1.000
    Cu131   Cu   0.82424   0.63983   0.82396   1.000
    Cu132   Cu   0.82456   0.67495   0.85712   1.000
    H133    H    0.82285   0.66839   0.82928   1.000
    H134    H    0.83965   0.65450   0.84379   1.000
    Cu135   Cu   0.85718   0.17662   0.32522   1.000
    Cu136   Cu   0.82622   0.14117   0.32320   1.000
    Cu137   Cu   0.82385   0.17431   0.35828   1.000
    H138    H    0.82421   0.16916   0.32987   1.000
    H139    H    0.84005   0.15453   0.34472   1.000
    Cu140   Cu   0.64454   0.32131   0.32293   1.000
    Cu141   Cu   0.67529   0.35661   0.32505   1.000
    Cu142   Cu   0.67435   0.32165   0.35898   1.000
    H143    H    0.67693   0.32840   0.33095   1.000
    H144    H    0.65976   0.34235   0.34472   1.000
    Cu145   Cu   0.64744   0.82044   0.82029   1.000
    Cu146   Cu   0.67544   0.85797   0.82457   1.000
    Cu147   Cu   0.67469   0.82314   0.85830   1.000
    H148    H    0.67862   0.82982   0.83028   1.000
    H149    H    0.65952   0.84252   0.84285   1.000
    Cu150   Cu   0.14337   0.32631   0.82474   1.000
    Cu151   Cu   0.17808   0.35792   0.82563   1.000
    Cu152   Cu   0.17523   0.32294   0.85916   1.000
    H153    H    0.17671   0.32955   0.83109   1.000
    H154    H    0.16213   0.34517   0.84602   1.000
    Cu155   Cu   0.14186   0.82310   0.32632   1.000
    Cu156   Cu   0.17314   0.85800   0.32296   1.000
    Cu157   Cu   0.17658   0.82459   0.35798   1.000
    H158    H    0.17507   0.82994   0.32963   1.000
    H159    H    0.16023   0.84477   0.34512   1.000
    Cu160   Cu   0.07633   0.99850   0.07729   1.000
    Cu161   Cu   0.10227   0.99837   0.10373   1.000
    Cu162   Cu   0.92092   0.00045   0.07663   1.000
    Cu163   Cu   0.89438   0.00083   0.10227   1.000
    Cu164   Cu   0.99894   0.07859   0.07649   1.000
    Cu165   Cu   0.99924   0.10479   0.10247   1.000
    Cu166   Cu   0.99811   0.92061   0.07741   1.000
    Cu167   Cu   0.99747   0.89468   0.10387   1.000
    Cu168   Cu   0.07773   0.99826   0.92143   1.000
    Cu169   Cu   0.10429   0.99753   0.89579   1.000
    Cu170   Cu   0.92326   0.00006   0.91925   1.000
    Cu171   Cu   0.89722   0.00018   0.89292   1.000
    Cu172   Cu   0.07846   0.07657   0.99892   1.000
    Cu173   Cu   0.10494   0.10235   0.99920   1.000
    Cu174   Cu   0.07620   0.91901   0.00081   1.000
    Cu175   Cu   0.10257   0.89296   0.00106   1.000
    Cu176   Cu   0.92252   0.07880   0.99718   1.000
    Cu177   Cu   0.89625   0.10490   0.99660   1.000
    Cu178   Cu   0.92122   0.92190   0.99825   1.000
    Cu179   Cu   0.89453   0.89630   0.99807   1.000
    Cu180   Cu   0.00104   0.07802   0.91997   1.000
    Cu181   Cu   0.00165   0.10410   0.89369   1.000
    Cu182   Cu   0.99972   0.92006   0.92155   1.000
    Cu183   Cu   0.99973   0.89383   0.89551   1.000
    Cu184   Cu   0.00158   0.42188   0.42250   1.000
    Cu185   Cu   0.00140   0.39597   0.39621   1.000
    Cu186   Cu   0.99986   0.57923   0.42378   1.000
    Cu187   Cu   0.99957   0.60547   0.39759   1.000
    Cu188   Cu   0.92162   0.50008   0.42279   1.000
    Cu189   Cu   0.89590   0.50041   0.39617   1.000
    Cu190   Cu   0.07822   0.50081   0.42164   1.000
    Cu191   Cu   0.10412   0.50146   0.39529   1.000
    Cu192   Cu   0.00134   0.42161   0.57666   1.000
    Cu193   Cu   0.00151   0.39505   0.60249   1.000
    Cu194   Cu   0.00068   0.57696   0.57796   1.000
    Cu195   Cu   0.00061   0.60287   0.60434   1.000
    Cu196   Cu   0.92141   0.42174   0.49940   1.000
    Cu197   Cu   0.89565   0.39525   0.49939   1.000
    Cu198   Cu   0.08064   0.42255   0.49922   1.000
    Cu199   Cu   0.10698   0.39648   0.49921   1.000
    Cu200   Cu   0.92174   0.57850   0.50053   1.000
    Cu201   Cu   0.89542   0.60458   0.50093   1.000
    Cu202   Cu   0.07896   0.57826   0.50078   1.000
    Cu203   Cu   0.10510   0.60442   0.50080   1.000
    Cu204   Cu   0.92227   0.49904   0.57785   1.000
    Cu205   Cu   0.89635   0.49887   0.60418   1.000
    Cu206   Cu   0.07966   0.49935   0.57817   1.000
    Cu207   Cu   0.10568   0.49918   0.60452   1.000
    Cu208   Cu   0.50037   0.92273   0.42229   1.000
    Cu209   Cu   0.50100   0.89666   0.39610   1.000
    Cu210   Cu   0.49847   0.07771   0.42146   1.000
    Cu211   Cu   0.49830   0.10431   0.39568   1.000
    Cu212   Cu   0.42082   0.99969   0.42119   1.000
    Cu213   Cu   0.39470   0.99941   0.39496   1.000
    Cu214   Cu   0.57816   0.00156   0.42257   1.000
    Cu215   Cu   0.60443   0.00166   0.39658   1.000
    Cu216   Cu   0.50002   0.92175   0.57848   1.000
    Cu217   Cu   0.50030   0.89534   0.60451   1.000
    Cu218   Cu   0.49772   0.07768   0.57987   1.000
    Cu219   Cu   0.49737   0.10424   0.60553   1.000
    Cu220   Cu   0.42226   0.92142   0.49943   1.000
    Cu221   Cu   0.39627   0.89512   0.49955   1.000
    Cu222   Cu   0.57809   0.92317   0.50106   1.000
    Cu223   Cu   0.60469   0.89732   0.50115   1.000
    Cu224   Cu   0.42040   0.07617   0.50008   1.000
    Cu225   Cu   0.39411   0.10232   0.49995   1.000
    Cu226   Cu   0.57676   0.07823   0.50106   1.000
    Cu227   Cu   0.60220   0.10507   0.50127   1.000
    Cu228   Cu   0.42157   0.99928   0.57912   1.000
    Cu229   Cu   0.39503   0.99858   0.60484   1.000
    Cu230   Cu   0.57663   0.00125   0.57906   1.000
    Cu231   Cu   0.60283   0.00114   0.60531   1.000
    Cu232   Cu   0.50000   0.42259   0.92220   1.000
    Cu233   Cu   0.49932   0.39609   0.89649   1.000
    Cu234   Cu   0.50169   0.57758   0.92062   1.000
    Cu235   Cu   0.50181   0.60366   0.89428   1.000
    Cu236   Cu   0.42245   0.50092   0.92290   1.000
    Cu237   Cu   0.39589   0.50130   0.89707   1.000
    Cu238   Cu   0.57864   0.49932   0.92220   1.000
    Cu239   Cu   0.60526   0.49874   0.89659   1.000
    Cu240   Cu   0.50058   0.42359   0.08077   1.000
    Cu241   Cu   0.50022   0.39760   0.10713   1.000
    Cu242   Cu   0.50169   0.57968   0.07877   1.000
    Cu243   Cu   0.50231   0.60568   0.10500   1.000
    Cu244   Cu   0.42179   0.42409   0.00205   1.000
    Cu245   Cu   0.39575   0.39787   0.00232   1.000
    Cu246   Cu   0.57680   0.42136   0.00159   1.000
    Cu247   Cu   0.60262   0.39473   0.00159   1.000
    Cu248   Cu   0.42508   0.58048   0.00015   1.000
    Cu249   Cu   0.39907   0.60691   0.99967   1.000
    Cu250   Cu   0.57864   0.57801   0.00040   1.000
    Cu251   Cu   0.60498   0.60401   0.99984   1.000
    Cu252   Cu   0.42281   0.50247   0.07919   1.000
    Cu253   Cu   0.39656   0.50321   0.10516   1.000
    Cu254   Cu   0.57996   0.49999   0.07797   1.000
    Cu255   Cu   0.60631   0.49998   0.10402   1.000
loop_
    _geom_bond_atom_site_label_1
    _geom_bond_atom_site_label_2
    _geom_bond_distance
    _geom_bond_site_symmetry_2
    _ccdc_geom_bond_type
    Cu156  H158      2.06504      .   S
    Cu156  H159      2.06560      .   S
    Cu136  H138      2.06342      .   S
    Cu136  H139      2.06680      .   S
    Cu17   H6        2.05681      .   S
    Cu17   H19       2.05911      .   S
    Cu121  H123      2.05372      .   S
    Cu121  H124      2.05563      .   S
    Cu141  H143      2.06239      .   S
    Cu141  H144      2.06409      .   S
    H38    Cu36      2.04248      .   S
    H1     Cu9       2.05607      .   S
    H23    Cu22      2.04985      .   S
    H2     Cu9       2.05861      .   S
    H24    Cu22      2.05419      .   S
    H39    Cu37      1.99795      .   S
    Cu117  H119      2.06741      .   S
    Cu117  H118      2.06595      .   S
    Cu82   H84       2.05784      .   S
    Cu82   H83       2.06211      .   S
    Cu62   H64       2.05287      .   S
    Cu77   H79       2.02166      .   S
    H99    Cu96      2.05916      .   S
    H44    Cu41      2.05929      .   S
    H59    Cu56      2.04854      .   S
    H104   Cu101     2.06329      .   S
    H103   Cu101     2.06693      .   S
    Cu76   H78       2.01099      .   S
    H98    Cu96      2.05802      .   S
    H43    Cu41      2.05550      .   S
    H58    Cu56      2.05041      .   S
    H63    Cu61      2.03990      .   S
    Cu31   H33       2.05916      .   S
    Cu31   H34       2.05897      .   S
    Cu12   H14       2.05909      .   S
    Cu12   H15       2.06284      .   S
    Cu146  H148      2.06441      .   S
    Cu146  H149      2.05757      .   S
    Cu4    H0        2.05871      .   S
    Cu4    H10       2.06128      .   S
    Cu126  H128      2.06398      .   S
    Cu126  H129      2.06179      .   S
    Cu26   H28       2.04798      .   S
    Cu151  H154      2.06595      .   S
    H133   Cu132     2.05280      .   S
    H153   Cu152     2.06650      .   S
    H134   Cu132     2.05397      .   S
    H29    Cu27      2.04320      .   S
    Cu52   H54       2.05576      .   S
    Cu52   H53       2.05565      .   S
    Cu47   H49       2.06537      .   S
    Cu47   H48       2.06158      .   S
    Cu107  H109      2.05391      .   S
    Cu107  H108      2.05043      .   S
    Cu112  H114      2.05912      .   S
    Cu112  H113      2.05828      .   S
    Cu92   H94       2.05206      .   S
    Cu92   H93       2.04643      .   S
    Cu72   H74       2.03965      .   S
    H69    Cu66      2.05994      .   S
    H89    Cu86      2.06601      .   S
    H68    Cu66      2.06073      .   S
    H88    Cu86      2.06472      .   S
    H73    Cu71      2.05108      .   S
    Cu160  Cu161     2.64781      .   S
    Cu162  Cu163     2.64380      .   S
    Cu164  Cu165     2.64397      .   S
    Cu166  Cu167     2.64744      .   S
    Cu168  Cu169     2.64521      .   S
    Cu170  Cu171     2.64721      .   S
    Cu172  Cu173     2.64570      .   S
    Cu174  Cu175     2.64745      .   S
    Cu176  Cu177     2.64507      .   S
    Cu178  Cu179     2.64751      .   S
    Cu180  Cu181     2.64574      .   S
    Cu182  Cu183     2.64844      .   S
    Cu184  Cu185     2.64502      .   S
    Cu186  Cu187     2.64875      .   S
    Cu188  Cu189     2.64612      .   S
    Cu190  Cu191     2.64737      .   S
    Cu192  Cu193     2.64691      .   S
    Cu194  Cu195     2.64960      .   S
    Cu196  Cu197     2.64511      .   S
    Cu198  Cu199     2.64694      .   S
    Cu200  Cu201     2.64668      .   S
    Cu202  Cu203     2.64739      .   S
    Cu204  Cu205     2.64699      .   S
    Cu206  Cu207     2.64723      .   S
    Cu208  Cu209     2.64832      .   S
    Cu210  Cu211     2.64646      .   S
    Cu212  Cu213     2.64632      .   S
    Cu214  Cu215     2.64739      .   S
    Cu216  Cu217     2.64930      .   S
    Cu218  Cu219     2.64633      .   S
    Cu220  Cu221     2.64694      .   S
    Cu222  Cu223     2.64919      .   S
    Cu224  Cu225     2.64841      .   S
    Cu226  Cu227     2.64735      .   S
    Cu228  Cu229     2.64809      .   S
    Cu230  Cu231     2.65120      .   S
    Cu232  Cu233     2.64608      .   S
    Cu234  Cu235     2.64833      .   S
    Cu236  Cu237     2.64843      .   S
    Cu238  Cu239     2.64662      .   S
    Cu240  Cu241     2.64500      .   S
    Cu242  Cu243     2.64683      .   S
    Cu244  Cu245     2.64544      .   S
    Cu246  Cu247     2.64922      .   S
    Cu248  Cu249     2.64859  1_554   S
    Cu250  Cu251     2.64976  1_554   S
    Cu252  Cu253     2.64591      .   S
    Cu254  Cu255     2.64871      .   S
