# CIF file generated by openbabel 2.4.90, see http://openbabel.sf.net
data_I
_chemical_name_common ''
_cell_length_a 14.76
_cell_length_b 14.768
_cell_length_c 14.7681
_cell_angle_alpha 119.862
_cell_angle_beta 119.897
_cell_angle_gamma 90.143
_space_group_name_H-M_alt 'P 1'
_space_group_name_Hall 'P 1'
loop_
    _symmetry_equiv_pos_as_xyz
    x,y,z
loop_
    _atom_site_label
    _atom_site_type_symbol
    _atom_site_fract_x
    _atom_site_fract_y
    _atom_site_fract_z
    _atom_site_occupancy
    N0      N    0.99706   0.03011   0.51538   1.000
    N1      N    0.01365   0.56171   0.21232   1.000
    N2      N    0.71361   0.99328   0.98412   1.000
    Zr3     Zr   0.99732   0.99250   0.97105   1.000
    Zr4     Zr   0.52541   0.01969   0.77326   1.000
    O5      O    0.67300   0.91199   0.88506   1.000
    O6      O    0.59858   0.01970   0.85090   1.000
    O7      O    0.87732   0.99365   0.97841   1.000
    O8      O    0.99728   0.00245   0.15912   1.000
    O9      O    0.99451   0.99789   0.80419   1.000
    O10     O    0.99807   0.85793   0.07063   1.000
    O11     O    0.02360   0.17885   0.06105   1.000
loop_
    _geom_bond_atom_site_label_1
    _geom_bond_atom_site_label_2
    _geom_bond_distance
    _geom_bond_site_symmetry_2
    _ccdc_geom_bond_type
    Zr4    O5        3.00807  1_545   S
    N1     O5        8.72919  1_454   S
    Zr4    O6        1.11650      .   S
    N2     O6        2.08405  1_565   S
    Zr3    O7        1.82749      .   S
    N2     O7        2.45953      .   S
    Zr3    O8        2.70768  1_566   S
    N0     O8        5.07184      .   S
    N0     O9        4.53883  1_545   S
    Zr3    O9        2.48466      .   S
    Zr3    O10       3.00112  1_556   S
    N1     O10       5.67526  1_455   S
    N1     O11       4.97335      .   S
    Zr3    O11       2.30846  1_666   S
