# CIF file generated by openbabel 2.4.90, see http://openbabel.sf.net
data_I
_chemical_name_common ''
_cell_length_a 71.5169
_cell_length_b 71.4927
_cell_length_c 71.6087
_cell_angle_alpha 89.8315
_cell_angle_beta 90.1248
_cell_angle_gamma 89.8689
_space_group_name_H-M_alt 'P 1'
_space_group_name_Hall 'P 1'
loop_
    _symmetry_equiv_pos_as_xyz
    x,y,z
loop_
    _atom_site_label
    _atom_site_type_symbol
    _atom_site_fract_x
    _atom_site_fract_y
    _atom_site_fract_z
    _atom_site_occupancy
    N0      N    0.69488   0.59004   0.90952   1.000
    N1      N    0.40761   0.91007   0.30587   1.000
    N2      N    0.41123   0.69499   0.09413   1.000
    N3      N    0.19290   0.90620   0.09019   1.000
    N4      N    0.90933   0.40944   0.30734   1.000
    N5      N    0.90915   0.19418   0.09168   1.000
    N6      N    0.69502   0.40824   0.09145   1.000
    N7      N    0.90859   0.90852   0.80457   1.000
    N8      N    0.90899   0.69271   0.59235   1.000
    N9      N    0.69319   0.90898   0.59089   1.000
    N10     N    0.59251   0.59240   0.80590   1.000
    N11     N    0.59250   0.80520   0.58917   1.000
    N12     N    0.80695   0.58948   0.59249   1.000
    N13     N    0.59182   0.09098   0.30685   1.000
    N14     N    0.58990   0.30559   0.09397   1.000
    N15     N    0.80627   0.09186   0.08932   1.000
    N16     N    0.09053   0.59197   0.30637   1.000
    N17     N    0.09090   0.80447   0.09240   1.000
    N18     N    0.30776   0.59226   0.09158   1.000
    N19     N    0.09051   0.09197   0.80562   1.000
    N20     N    0.09412   0.30617   0.58967   1.000
    N21     N    0.30539   0.08887   0.59334   1.000
    N22     N    0.40930   0.59287   0.19481   1.000
    N23     N    0.40956   0.80596   0.40872   1.000
    N24     N    0.19336   0.59255   0.40943   1.000
    N25     N    0.40770   0.09117   0.69538   1.000
    N26     N    0.40848   0.30848   0.90950   1.000
    N27     N    0.19397   0.09120   0.90909   1.000
    N28     N    0.90829   0.58952   0.69303   1.000
    N29     N    0.90842   0.80522   0.90664   1.000
    N30     N    0.90947   0.09326   0.19278   1.000
    N31     N    0.90778   0.30646   0.40918   1.000
    N32     N    0.69359   0.09112   0.40801   1.000
    N33     N    0.59181   0.40894   0.19548   1.000
    N34     N    0.58913   0.19316   0.40818   1.000
    N35     N    0.80555   0.40743   0.40930   1.000
    N36     N    0.59052   0.90865   0.69462   1.000
    N37     N    0.59081   0.69355   0.90737   1.000
    N38     N    0.80624   0.90844   0.90765   1.000
    N39     N    0.09329   0.40951   0.69389   1.000
    N40     N    0.09134   0.19345   0.90656   1.000
    N41     N    0.30653   0.40816   0.91139   1.000
    N42     N    0.08815   0.90571   0.19344   1.000
    N43     N    0.09291   0.69405   0.41072   1.000
    N44     N    0.30588   0.90932   0.40659   1.000
    N45     N    0.08921   0.09185   0.19212   1.000
    N46     N    0.90710   0.90960   0.19331   1.000
    N47     N    0.09064   0.19305   0.09074   1.000
    N48     N    0.90813   0.80508   0.09110   1.000
    N49     N    0.19250   0.09028   0.09148   1.000
    N50     N    0.80557   0.90970   0.09034   1.000
    N51     N    0.40795   0.41023   0.19415   1.000
    N52     N    0.90721   0.69491   0.40937   1.000
    N53     N    0.59157   0.59201   0.19378   1.000
    N54     N    0.19511   0.40862   0.40770   1.000
    N55     N    0.40832   0.90857   0.69475   1.000
    N56     N    0.40876   0.19314   0.40837   1.000
    N57     N    0.69323   0.40904   0.90899   1.000
    N58     N    0.19238   0.90830   0.90928   1.000
    N59     N    0.40957   0.69455   0.90865   1.000
    N60     N    0.90943   0.40857   0.69324   1.000
    N61     N    0.90862   0.19445   0.90669   1.000
    N62     N    0.69318   0.91082   0.40865   1.000
    N63     N    0.80583   0.59123   0.40806   1.000
    N64     N    0.59170   0.80710   0.40974   1.000
    N65     N    0.59001   0.09168   0.69519   1.000
    N66     N    0.80648   0.09239   0.90693   1.000
    N67     N    0.58964   0.30581   0.90974   1.000
    N68     N    0.09219   0.59039   0.69351   1.000
    N69     N    0.30798   0.59143   0.90868   1.000
    N70     N    0.09173   0.80432   0.90922   1.000
    N71     N    0.30481   0.09028   0.40636   1.000
    N72     N    0.09154   0.30489   0.40883   1.000
    N73     N    0.59084   0.40735   0.80597   1.000
    N74     N    0.80567   0.40823   0.59113   1.000
    N75     N    0.59032   0.19261   0.59161   1.000
    N76     N    0.59249   0.91081   0.30744   1.000
    N77     N    0.59209   0.69503   0.09246   1.000
    N78     N    0.09223   0.40889   0.30645   1.000
    N79     N    0.30616   0.40949   0.09229   1.000
    N80     N    0.09235   0.90805   0.80574   1.000
    N81     N    0.30688   0.90760   0.59019   1.000
    N82     N    0.09171   0.69309   0.59216   1.000
    N83     N    0.40773   0.58941   0.80590   1.000
    N84     N    0.19491   0.59273   0.59013   1.000
    N85     N    0.41018   0.80608   0.59289   1.000
    N86     N    0.40801   0.09210   0.30487   1.000
    N87     N    0.40776   0.30811   0.09131   1.000
    N88     N    0.90837   0.59002   0.30735   1.000
    N89     N    0.69559   0.59065   0.09160   1.000
    N90     N    0.91048   0.09245   0.80355   1.000
    N91     N    0.69318   0.09278   0.59131   1.000
    N92     N    0.90811   0.30674   0.58991   1.000
    N93     N    0.40992   0.40859   0.80725   1.000
    N94     N    0.40767   0.19323   0.59154   1.000
    N95     N    0.19556   0.40882   0.59235   1.000
    Zr96    Zr   0.35798   0.82696   0.17645   1.000
    O97     O    0.37020   0.85025   0.21109   1.000
    O98     O    0.37144   0.79144   0.15360   1.000
    Zr99    Zr   0.32899   0.84482   0.16678   1.000
    O100    O    0.34968   0.86469   0.20600   1.000
    O101    O    0.29126   0.86326   0.14717   1.000
    Zr102   Zr   0.32576   0.82295   0.14255   1.000
    O103    O    0.29006   0.84615   0.12944   1.000
    O104    O    0.34972   0.78877   0.13075   1.000
    Zr105   Zr   0.85823   0.32495   0.17841   1.000
    O106    O    0.87097   0.34861   0.21293   1.000
    O107    O    0.87103   0.28989   0.15428   1.000
    Zr108   Zr   0.82573   0.35889   0.17702   1.000
    O109    O    0.84904   0.37145   0.21197   1.000
    O110    O    0.79074   0.37106   0.15311   1.000
    Zr111   Zr   0.83104   0.33332   0.15696   1.000
    O112    O    0.85193   0.29402   0.13744   1.000
    O113    O    0.79353   0.35238   0.13720   1.000
    Zr114   Zr   0.85603   0.82366   0.67554   1.000
    O115    O    0.86918   0.84746   0.71002   1.000
    O116    O    0.86928   0.78848   0.65236   1.000
    Zr117   Zr   0.82858   0.84394   0.66562   1.000
    O118    O    0.84982   0.86357   0.70472   1.000
    O119    O    0.79118   0.86353   0.64644   1.000
    Zr120   Zr   0.82386   0.82270   0.64116   1.000
    O121    O    0.78886   0.84678   0.62860   1.000
    O122    O    0.84758   0.78787   0.62922   1.000
    Zr123   Zr   0.64460   0.67626   0.67372   1.000
    O124    O    0.63157   0.71060   0.64990   1.000
    O125    O    0.63155   0.65300   0.70928   1.000
    Zr126   Zr   0.67263   0.65550   0.66718   1.000
    O127    O    0.70989   0.63579   0.64863   1.000
    O128    O    0.65134   0.63682   0.70668   1.000
    Zr129   Zr   0.67684   0.67296   0.63967   1.000
    O130    O    0.71175   0.64965   0.62828   1.000
    O131    O    0.65328   0.70834   0.62695   1.000
    Zr132   Zr   0.64428   0.17437   0.17806   1.000
    O133    O    0.63056   0.20955   0.15460   1.000
    O134    O    0.63127   0.15106   0.21261   1.000
    Zr135   Zr   0.67714   0.14096   0.17714   1.000
    O136    O    0.71167   0.12884   0.15261   1.000
    O137    O    0.65344   0.12857   0.21199   1.000
    Zr138   Zr   0.67134   0.16626   0.15666   1.000
    O139    O    0.70849   0.14736   0.13640   1.000
    O140    O    0.64951   0.20563   0.13777   1.000
    Zr141   Zr   0.14386   0.67482   0.17634   1.000
    O142    O    0.13043   0.65158   0.21116   1.000
    O143    O    0.13070   0.70961   0.15290   1.000
    Zr144   Zr   0.17570   0.64005   0.17645   1.000
    O145    O    0.21112   0.62823   0.15280   1.000
    O146    O    0.15191   0.62818   0.21120   1.000
    Zr147   Zr   0.17175   0.66579   0.15642   1.000
    O148    O    0.20937   0.64706   0.13696   1.000
    O149    O    0.15042   0.70505   0.13713   1.000
    Zr150   Zr   0.14306   0.17697   0.67506   1.000
    O151    O    0.13096   0.21148   0.65112   1.000
    O152    O    0.12977   0.15337   0.71017   1.000
    Zr153   Zr   0.17420   0.14165   0.67783   1.000
    O154    O    0.20940   0.12837   0.65426   1.000
    O155    O    0.15077   0.12960   0.71203   1.000
    Zr156   Zr   0.17079   0.16602   0.65608   1.000
    O157    O    0.20804   0.14613   0.63717   1.000
    O158    O    0.15059   0.20547   0.63587   1.000
    Zr159   Zr   0.35659   0.67637   0.32507   1.000
    O160    O    0.36972   0.65301   0.29016   1.000
    O161    O    0.36991   0.71108   0.34849   1.000
    Zr162   Zr   0.32838   0.65659   0.33360   1.000
    O163    O    0.29096   0.63737   0.35286   1.000
    O164    O    0.34980   0.63733   0.29442   1.000
    Zr165   Zr   0.32405   0.67694   0.35892   1.000
    O166    O    0.34796   0.71143   0.37128   1.000
    O167    O    0.28895   0.65344   0.37138   1.000
    Zr168   Zr   0.35656   0.17728   0.82531   1.000
    O169    O    0.36934   0.15331   0.79049   1.000
    O170    O    0.36956   0.21252   0.84870   1.000
    Zr171   Zr   0.32867   0.15754   0.83409   1.000
    O172    O    0.34973   0.13757   0.79488   1.000
    O173    O    0.29147   0.13767   0.85319   1.000
    Zr174   Zr   0.32421   0.17869   0.85896   1.000
    O175    O    0.28929   0.15431   0.87141   1.000
    O176    O    0.34776   0.21347   0.87139   1.000
    Zr177   Zr   0.85541   0.67475   0.82140   1.000
    O178    O    0.86873   0.70976   0.84512   1.000
    O179    O    0.86859   0.65092   0.78703   1.000
    Zr180   Zr   0.82424   0.63983   0.82396   1.000
    O181    O    0.84757   0.62740   0.78877   1.000
    O182    O    0.78968   0.62750   0.84795   1.000
    Zr183   Zr   0.82902   0.66595   0.84340   1.000
    O184    O    0.85017   0.70540   0.86231   1.000
    O185    O    0.79208   0.64663   0.86338   1.000
    Zr186   Zr   0.85718   0.17662   0.32522   1.000
    O187    O    0.87043   0.15339   0.28970   1.000
    O188    O    0.86967   0.21134   0.34874   1.000
    Zr189   Zr   0.83016   0.15495   0.33260   1.000
    O190    O    0.85154   0.13640   0.29305   1.000
    O191    O    0.79260   0.13552   0.35153   1.000
    Zr192   Zr   0.82385   0.17431   0.35828   1.000
    O193    O    0.78904   0.15093   0.37043   1.000
    O194    O    0.84721   0.20978   0.37101   1.000
    Zr195   Zr   0.64454   0.32131   0.32293   1.000
    O196    O    0.63038   0.28708   0.34679   1.000
    O197    O    0.63116   0.34585   0.28895   1.000
    Zr198   Zr   0.67066   0.34245   0.33357   1.000
    O199    O    0.64959   0.36254   0.29459   1.000
    O200    O    0.70790   0.36198   0.35290   1.000
    Zr201   Zr   0.67435   0.32165   0.35898   1.000
    O202    O    0.65049   0.28727   0.37107   1.000
    O203    O    0.70957   0.34555   0.37145   1.000
    Zr204   Zr   0.64744   0.82044   0.82029   1.000
    O205    O    0.63291   0.84516   0.78682   1.000
    O206    O    0.63290   0.78659   0.84466   1.000
    Zr207   Zr   0.67119   0.84344   0.83257   1.000
    O208    O    0.70831   0.86314   0.85192   1.000
    O209    O    0.64965   0.86319   0.79369   1.000
    Zr210   Zr   0.67469   0.82314   0.85830   1.000
    O211    O    0.70992   0.84698   0.87060   1.000
    O212    O    0.65126   0.78841   0.87028   1.000
    Zr213   Zr   0.14337   0.32631   0.82474   1.000
    O214    O    0.13108   0.34955   0.78967   1.000
    O215    O    0.13020   0.29062   0.84753   1.000
    Zr216   Zr   0.17011   0.35155   0.83583   1.000
    O217    O    0.15049   0.36766   0.79538   1.000
    O218    O    0.20847   0.36697   0.85475   1.000
    Zr219   Zr   0.17597   0.32625   0.84513   1.000
    O220    O    0.21091   0.34829   0.86519   1.000
    O221    O    0.15204   0.29002   0.86371   1.000
    Zr222   Zr   0.14186   0.82310   0.32632   1.000
    O223    O    0.12991   0.78848   0.34986   1.000
    O224    O    0.12823   0.84608   0.29062   1.000
    Zr225   Zr   0.16948   0.84424   0.33257   1.000
    O226    O    0.20697   0.86398   0.35107   1.000
    O227    O    0.14749   0.86271   0.29318   1.000
    Zr228   Zr   0.17658   0.82459   0.35798   1.000
    O229    O    0.15331   0.78950   0.37119   1.000
    O230    O    0.21111   0.84839   0.36982   1.000
    Zr231   Zr   0.84343   0.83061   0.33258   1.000
    O232    O    0.86275   0.85172   0.29328   1.000
    O233    O    0.86260   0.79309   0.35209   1.000
    Zr234   Zr   0.32576   0.35797   0.32496   1.000
    O235    O    0.29074   0.37053   0.34812   1.000
    O236    O    0.34858   0.37093   0.28971   1.000
    Zr237   Zr   0.35820   0.32388   0.32234   1.000
    O238    O    0.37083   0.28886   0.34635   1.000
    O239    O    0.37040   0.34792   0.28797   1.000
    Zr240   Zr   0.33413   0.32910   0.34394   1.000
    O241    O    0.29497   0.35019   0.36332   1.000
    O242    O    0.35322   0.29150   0.36332   1.000
    Zr243   Zr   0.32215   0.85570   0.82365   1.000
    O244    O    0.34621   0.86908   0.78919   1.000
    O245    O    0.28733   0.86898   0.84745   1.000
    Zr246   Zr   0.34296   0.82901   0.83349   1.000
    O247    O    0.36294   0.79196   0.85266   1.000
    O248    O    0.36271   0.85033   0.79433   1.000
    Zr249   Zr   0.32168   0.82459   0.85831   1.000
    O250    O    0.34619   0.78974   0.87082   1.000
    O251    O    0.28701   0.84799   0.87081   1.000
    Zr252   Zr   0.82435   0.35915   0.82355   1.000
    O253    O    0.84809   0.37149   0.78866   1.000
    O254    O    0.78919   0.37165   0.84731   1.000
    Zr255   Zr   0.84391   0.33076   0.83203   1.000
    O256    O    0.86330   0.29305   0.85098   1.000
    O257    O    0.86367   0.35151   0.79283   1.000
    Zr258   Zr   0.82293   0.32620   0.85700   1.000
    O259    O    0.78823   0.34944   0.86985   1.000
    O260    O    0.84680   0.29085   0.86928   1.000
    Zr261   Zr   0.82402   0.85910   0.32435   1.000
    O262    O    0.78885   0.87201   0.34774   1.000
    O263    O    0.84725   0.87173   0.28927   1.000
    Zr264   Zr   0.82190   0.82579   0.35714   1.000
    O265    O    0.78742   0.84955   0.36984   1.000
    O266    O    0.84571   0.79069   0.37010   1.000
    Zr267   Zr   0.67318   0.64301   0.32485   1.000
    O268    O    0.70875   0.62999   0.34804   1.000
    O269    O    0.65039   0.63041   0.28966   1.000
    Zr270   Zr   0.64129   0.67731   0.32397   1.000
    O271    O    0.62907   0.71205   0.34794   1.000
    O272    O    0.62893   0.65356   0.28907   1.000
    Zr273   Zr   0.66606   0.67121   0.34500   1.000
    O274    O    0.64723   0.70869   0.36451   1.000
    O275    O    0.70550   0.64973   0.36403   1.000
    Zr276   Zr   0.67632   0.14525   0.82275   1.000
    O277    O    0.65208   0.13166   0.78871   1.000
    O278    O    0.71119   0.13212   0.84630   1.000
    Zr279   Zr   0.65382   0.17658   0.82618   1.000
    O280    O    0.63447   0.15245   0.79097   1.000
    O281    O    0.63439   0.21085   0.84931   1.000
    Zr282   Zr   0.66790   0.17168   0.84958   1.000
    O283    O    0.70726   0.15149   0.86513   1.000
    O284    O    0.64808   0.20945   0.86592   1.000
    Zr285   Zr   0.17684   0.64261   0.82340   1.000
    O286    O    0.15326   0.62960   0.78856   1.000
    O287    O    0.21205   0.62976   0.84709   1.000
    Zr288   Zr   0.15709   0.67061   0.83205   1.000
    O289    O    0.13753   0.64932   0.79284   1.000
    O290    O    0.13750   0.70759   0.85168   1.000
    Zr291   Zr   0.17814   0.67469   0.85720   1.000
    O292    O    0.15404   0.70947   0.87011   1.000
    O293    O    0.21292   0.65139   0.86987   1.000
    Zr294   Zr   0.17496   0.14409   0.31995   1.000
    O295    O    0.15084   0.13098   0.28590   1.000
    O296    O    0.20972   0.13049   0.34405   1.000
    Zr297   Zr   0.14969   0.17180   0.32826   1.000
    O298    O    0.13207   0.20669   0.35098   1.000
    O299    O    0.13143   0.14901   0.29175   1.000
    Zr300   Zr   0.16792   0.16798   0.34935   1.000
    O301    O    0.14836   0.20649   0.36547   1.000
    O302    O    0.20667   0.14826   0.36444   1.000
    Zr303   Zr   0.67451   0.35608   0.67508   1.000
    O304    O    0.65107   0.36886   0.71011   1.000
    O305    O    0.70967   0.36917   0.65163   1.000
    Zr306   Zr   0.65540   0.32736   0.66682   1.000
    O307    O    0.63597   0.28996   0.64774   1.000
    O308    O    0.63583   0.34858   0.70602   1.000
    Zr309   Zr   0.67628   0.32274   0.64200   1.000
    O310    O    0.65241   0.28775   0.62957   1.000
    O311    O    0.71084   0.34667   0.62937   1.000
    Zr312   Zr   0.67665   0.85802   0.17712   1.000
    O313    O    0.71113   0.87096   0.15290   1.000
    O314    O    0.65327   0.87122   0.21214   1.000
    Zr315   Zr   0.64236   0.82605   0.17828   1.000
    O316    O    0.63016   0.84968   0.21292   1.000
    O317    O    0.62981   0.79097   0.15429   1.000
    Zr318   Zr   0.66686   0.83080   0.15680   1.000
    O319    O    0.70598   0.85183   0.13672   1.000
    O320    O    0.64771   0.79337   0.13739   1.000
    Zr321   Zr   0.17489   0.35683   0.17466   1.000
    O322    O    0.15189   0.36979   0.21010   1.000
    O323    O    0.21010   0.36989   0.15163   1.000
    Zr324   Zr   0.14142   0.32390   0.17613   1.000
    O325    O    0.12875   0.28887   0.15227   1.000
    O326    O    0.12936   0.34757   0.21106   1.000
    Zr327   Zr   0.16615   0.32859   0.15509   1.000
    O328    O    0.14684   0.29115   0.13570   1.000
    O329    O    0.20566   0.34999   0.13604   1.000
    Zr330   Zr   0.17648   0.85716   0.67396   1.000
    O331    O    0.15309   0.86988   0.70935   1.000
    O332    O    0.21149   0.86963   0.65062   1.000
    Zr333   Zr   0.15645   0.82869   0.66710   1.000
    O334    O    0.13724   0.84989   0.70630   1.000
    O335    O    0.13698   0.79121   0.64816   1.000
    Zr336   Zr   0.17681   0.82324   0.64178   1.000
    O337    O    0.15303   0.78838   0.62957   1.000
    O338    O    0.21168   0.84676   0.62895   1.000
    Zr339   Zr   0.32106   0.64553   0.67707   1.000
    O340    O    0.28741   0.63245   0.65268   1.000
    O341    O    0.34523   0.63118   0.71156   1.000
    Zr342   Zr   0.34457   0.67622   0.67542   1.000
    O343    O    0.36351   0.65145   0.71069   1.000
    O344    O    0.36448   0.71061   0.65280   1.000
    Zr345   Zr   0.33185   0.67178   0.65110   1.000
    O346    O    0.29296   0.65173   0.63430   1.000
    O347    O    0.35179   0.70961   0.63531   1.000
    Zr348   Zr   0.32472   0.14302   0.17326   1.000
    O349    O    0.28913   0.12991   0.15052   1.000
    O350    O    0.34802   0.13038   0.20852   1.000
    Zr351   Zr   0.34324   0.17212   0.16512   1.000
    O352    O    0.36290   0.15089   0.20449   1.000
    O353    O    0.36257   0.20978   0.14633   1.000
    Zr354   Zr   0.32180   0.17702   0.14075   1.000
    O355    O    0.28720   0.15284   0.12863   1.000
    O356    O    0.34575   0.21218   0.12846   1.000
    Zr357   Zr   0.82003   0.64757   0.18108   1.000
    O358    O    0.84469   0.63284   0.21481   1.000
    O359    O    0.78694   0.63300   0.15599   1.000
    Zr360   Zr   0.84463   0.67660   0.17530   1.000
    O361    O    0.86371   0.65191   0.21126   1.000
    O362    O    0.86397   0.71037   0.15222   1.000
    Zr363   Zr   0.83174   0.66930   0.15177   1.000
    O364    O    0.79317   0.64911   0.13510   1.000
    O365    O    0.85124   0.70741   0.13494   1.000
    Zr366   Zr   0.82424   0.14396   0.67460   1.000
    O367    O    0.84839   0.13112   0.70906   1.000
    O368    O    0.78898   0.13135   0.65145   1.000
    Zr369   Zr   0.84706   0.17481   0.67099   1.000
    O370    O    0.86615   0.15155   0.70623   1.000
    O371    O    0.86520   0.21002   0.64819   1.000
    Zr372   Zr   0.82848   0.17322   0.64997   1.000
    O373    O    0.79000   0.15271   0.63466   1.000
    O374    O    0.84848   0.21095   0.63427   1.000
    Zr375   Zr   0.35909   0.32402   0.67617   1.000
    O376    O    0.37180   0.34748   0.71140   1.000
    O377    O    0.37121   0.28899   0.65256   1.000
    Zr378   Zr   0.32592   0.35702   0.67839   1.000
    O379    O    0.34943   0.36972   0.71289   1.000
    O380    O    0.29094   0.36988   0.65441   1.000
    Zr381   Zr   0.33053   0.33238   0.65700   1.000
    O382    O    0.35113   0.29312   0.63722   1.000
    O383    O    0.29320   0.35183   0.63761   1.000
    Zr384   Zr   0.08930   0.99844   0.09051   1.000
    Zr385   Zr   0.90765   0.00064   0.08945   1.000
    Zr386   Zr   0.99909   0.09169   0.08948   1.000
    Zr387   Zr   0.99779   0.90765   0.09064   1.000
    Zr388   Zr   0.09101   0.99790   0.90861   1.000
    Zr389   Zr   0.91024   0.00012   0.90609   1.000
    Zr390   Zr   0.09170   0.08946   0.99906   1.000
    Zr391   Zr   0.08939   0.90598   0.00094   1.000
    Zr392   Zr   0.90939   0.09185   0.99689   1.000
    Zr393   Zr   0.90788   0.90910   0.99816   1.000
    Zr394   Zr   0.00134   0.09106   0.90683   1.000
    Zr395   Zr   0.99973   0.90695   0.90853   1.000
    Zr396   Zr   0.00149   0.40893   0.40936   1.000
    Zr397   Zr   0.99971   0.59235   0.41069   1.000
    Zr398   Zr   0.90876   0.50025   0.40948   1.000
    Zr399   Zr   0.09117   0.50114   0.40847   1.000
    Zr400   Zr   0.00142   0.40833   0.58958   1.000
    Zr401   Zr   0.00065   0.58992   0.59115   1.000
    Zr402   Zr   0.90853   0.40850   0.49940   1.000
    Zr403   Zr   0.09381   0.40952   0.49922   1.000
    Zr404   Zr   0.90858   0.59154   0.50073   1.000
    Zr405   Zr   0.09203   0.59134   0.50079   1.000
    Zr406   Zr   0.90931   0.49896   0.59102   1.000
    Zr407   Zr   0.09267   0.49927   0.59135   1.000
    Zr408   Zr   0.50068   0.90970   0.40920   1.000
    Zr409   Zr   0.49839   0.09101   0.40857   1.000
    Zr410   Zr   0.40776   0.99955   0.40808   1.000
    Zr411   Zr   0.59130   0.00161   0.40957   1.000
    Zr412   Zr   0.50016   0.90855   0.59150   1.000
    Zr413   Zr   0.49755   0.09096   0.59270   1.000
    Zr414   Zr   0.40927   0.90827   0.49949   1.000
    Zr415   Zr   0.59139   0.91025   0.50110   1.000
    Zr416   Zr   0.40726   0.08925   0.50002   1.000
    Zr417   Zr   0.58948   0.09165   0.50117   1.000
    Zr418   Zr   0.40830   0.99893   0.59198   1.000
    Zr419   Zr   0.58973   0.00120   0.59219   1.000
    Zr420   Zr   0.49966   0.40934   0.90935   1.000
    Zr421   Zr   0.50175   0.59062   0.90745   1.000
    Zr422   Zr   0.40917   0.50111   0.90999   1.000
    Zr423   Zr   0.59195   0.49903   0.90940   1.000
    Zr424   Zr   0.50040   0.41060   0.09395   1.000
    Zr425   Zr   0.50200   0.59268   0.09189   1.000
    Zr426   Zr   0.40877   0.41098   0.00219   1.000
    Zr427   Zr   0.58971   0.40805   0.00159   1.000
    Zr428   Zr   0.41208   0.59370   0.99991   1.000
    Zr429   Zr   0.59181   0.59101   0.00012   1.000
    Zr430   Zr   0.40969   0.50284   0.09218   1.000
    Zr431   Zr   0.59314   0.49999   0.09100   1.000
    O432    O    0.38020   0.08753   0.52561   1.000
    O433    O    0.38094   0.02371   0.59075   1.000
    O434    O    0.58988   0.88289   0.47596   1.000
    O435    O    0.52575   0.88245   0.41092   1.000
    O436    O    0.88210   0.52388   0.58979   1.000
    O437    O    0.88158   0.58940   0.52595   1.000
    O438    O    0.88202   0.09023   0.02228   1.000
    O439    O    0.88075   0.02575   0.08777   1.000
    O440    O    0.02529   0.61937   0.41230   1.000
    O441    O    0.09064   0.61865   0.47600   1.000
    O442    O    0.59011   0.88231   0.52538   1.000
    O443    O    0.52554   0.88115   0.58931   1.000
    O444    O    0.09232   0.38207   0.52413   1.000
    O445    O    0.02692   0.38125   0.58799   1.000
    O446    O    0.88092   0.91055   0.97321   1.000
    O447    O    0.88263   0.97494   0.90810   1.000
    O448    O    0.02664   0.41021   0.61731   1.000
    O449    O    0.09121   0.47452   0.61854   1.000
    O450    O    0.41306   0.62046   0.97478   1.000
    O451    O    0.47645   0.61825   0.90934   1.000
    O452    O    0.11675   0.02364   0.08916   1.000
    O453    O    0.11848   0.08806   0.02447   1.000
    O454    O    0.88072   0.91091   0.02345   1.000
    O455    O    0.88053   0.97563   0.08806   1.000
    O456    O    0.38181   0.91013   0.47398   1.000
    O457    O    0.38072   0.97469   0.40931   1.000
    O458    O    0.47491   0.91013   0.61890   1.000
    O459    O    0.40988   0.97404   0.61929   1.000
    O460    O    0.88142   0.52530   0.41069   1.000
    O461    O    0.88133   0.58985   0.47526   1.000
    O462    O    0.59002   0.97661   0.38244   1.000
    O463    O    0.52589   0.91164   0.38218   1.000
    O464    O    0.40935   0.97491   0.38094   1.000
    O465    O    0.47510   0.91135   0.38175   1.000
    O466    O    0.52336   0.11813   0.41008   1.000
    O467    O    0.58774   0.11857   0.47562   1.000
    O468    O    0.40926   0.11682   0.47485   1.000
    O469    O    0.38004   0.08794   0.47430   1.000
    O470    O    0.40893   0.11684   0.52519   1.000
    O471    O    0.11786   0.97321   0.91048   1.000
    O472    O    0.11839   0.02350   0.91030   1.000
    O473    O    0.08932   0.02371   0.88122   1.000
    O474    O    0.08977   0.97315   0.88127   1.000
    O475    O    0.91082   0.11910   0.97207   1.000
    O476    O    0.97589   0.11854   0.90838   1.000
    O477    O    0.52298   0.11795   0.59075   1.000
    O478    O    0.58802   0.11844   0.52605   1.000
    O479    O    0.52299   0.08963   0.61996   1.000
    O480    O    0.47275   0.11808   0.59080   1.000
    O481    O    0.47284   0.08939   0.62001   1.000
    O482    O    0.97430   0.61960   0.41192   1.000
    O483    O    0.90978   0.61906   0.47562   1.000
    O484    O    0.58819   0.02608   0.61952   1.000
    O485    O    0.02334   0.88018   0.08954   1.000
    O486    O    0.97285   0.90981   0.11784   1.000
    O487    O    0.02268   0.90873   0.11795   1.000
    O488    O    0.97308   0.88043   0.08916   1.000
    O489    O    0.41093   0.88108   0.47452   1.000
    O490    O    0.38206   0.90971   0.52444   1.000
    O491    O    0.41112   0.88115   0.52513   1.000
    O492    O    0.61837   0.97664   0.41098   1.000
    O493    O    0.61844   0.91203   0.47574   1.000
    O494    O    0.11670   0.90822   0.97575   1.000
    O495    O    0.58980   0.02621   0.38227   1.000
    O496    O    0.61845   0.02629   0.41077   1.000
    O497    O    0.59008   0.47382   0.88195   1.000
    O498    O    0.59053   0.52465   0.88185   1.000
    O499    O    0.61882   0.47425   0.91096   1.000
    O500    O    0.61927   0.52408   0.91101   1.000
    O501    O    0.88207   0.09038   0.97211   1.000
    O502    O    0.91088   0.11906   0.02289   1.000
    O503    O    0.08816   0.87900   0.02608   1.000
    O504    O    0.08842   0.87894   0.97571   1.000
    O505    O    0.11686   0.90764   0.02553   1.000
    O506    O    0.12071   0.41087   0.47402   1.000
    O507    O    0.09162   0.38175   0.47436   1.000
    O508    O    0.12085   0.41096   0.52476   1.000
    O509    O    0.88270   0.02549   0.90787   1.000
    O510    O    0.52667   0.59084   0.11891   1.000
    O511    O    0.59112   0.52530   0.11823   1.000
    O512    O    0.52681   0.61987   0.09044   1.000
    O513    O    0.59033   0.61866   0.02549   1.000
    O514    O    0.11879   0.47569   0.40980   1.000
    O515    O    0.47370   0.11810   0.41016   1.000
    O516    O    0.58816   0.38086   0.02698   1.000
    O517    O    0.61769   0.40967   0.02631   1.000
    O518    O    0.58807   0.38091   0.97636   1.000
    O519    O    0.61719   0.40988   0.97615   1.000
    O520    O    0.97437   0.09052   0.11691   1.000
    O521    O    0.90971   0.02607   0.11689   1.000
    O522    O    0.52479   0.41035   0.88187   1.000
    O523    O    0.97615   0.41071   0.38232   1.000
    O524    O    0.97578   0.38170   0.41090   1.000
    O525    O    0.02631   0.38129   0.41079   1.000
    O526    O    0.02644   0.41051   0.38198   1.000
    O527    O    0.97612   0.40995   0.61709   1.000
    O528    O    0.97584   0.38133   0.58803   1.000
    O529    O    0.61839   0.91153   0.52585   1.000
    O530    O    0.52502   0.91017   0.61890   1.000
    O531    O    0.47539   0.88132   0.59024   1.000
    O532    O    0.38440   0.59176   0.02512   1.000
    O533    O    0.41345   0.62064   0.02573   1.000
    O534    O    0.38443   0.59151   0.97486   1.000
    O535    O    0.47653   0.59116   0.11924   1.000
    O536    O    0.47703   0.61990   0.09086   1.000
    O537    O    0.97469   0.90898   0.88092   1.000
    O538    O    0.97458   0.87992   0.90961   1.000
    O539    O    0.02520   0.90879   0.88125   1.000
    O540    O    0.02497   0.87966   0.91035   1.000
    O541    O    0.90961   0.88146   0.97305   1.000
    O542    O    0.90947   0.88147   0.02372   1.000
    O543    O    0.52503   0.38266   0.09239   1.000
    O544    O    0.52557   0.41176   0.12090   1.000
    O545    O    0.47494   0.38343   0.09166   1.000
    O546    O    0.47502   0.41213   0.12059   1.000
    O547    O    0.61938   0.58933   0.02526   1.000
    O548    O    0.58994   0.61823   0.97465   1.000
    O549    O    0.61913   0.58913   0.97519   1.000
    O550    O    0.38267   0.52748   0.09036   1.000
    O551    O    0.88181   0.47400   0.58944   1.000
    O552    O    0.91095   0.47406   0.61816   1.000
    O553    O    0.91066   0.52387   0.61812   1.000
    O554    O    0.47565   0.88213   0.41067   1.000
    O555    O    0.97434   0.11895   0.08841   1.000
    O556    O    0.11831   0.52622   0.41038   1.000
    O557    O    0.08942   0.52617   0.38137   1.000
    O558    O    0.08981   0.47582   0.38135   1.000
    O559    O    0.59120   0.47498   0.11876   1.000
    O560    O    0.62039   0.52491   0.08955   1.000
    O561    O    0.62018   0.47473   0.08954   1.000
    O562    O    0.38038   0.02450   0.40922   1.000
    O563    O    0.40941   0.02499   0.38069   1.000
    O564    O    0.02471   0.59069   0.38299   1.000
    O565    O    0.97462   0.59012   0.38327   1.000
    O566    O    0.11894   0.59004   0.47566   1.000
    O567    O    0.09035   0.61836   0.52592   1.000
    O568    O    0.11937   0.59008   0.52540   1.000
    O569    O    0.11981   0.52494   0.58946   1.000
    O570    O    0.12003   0.47439   0.59000   1.000
    O571    O    0.09094   0.52431   0.61850   1.000
    O572    O    0.38189   0.47561   0.91194   1.000
    O573    O    0.41040   0.52544   0.88232   1.000
    O574    O    0.41093   0.47569   0.88270   1.000
    O575    O    0.38235   0.52600   0.91129   1.000
    O576    O    0.52402   0.08941   0.38154   1.000
    O577    O    0.47350   0.08973   0.38100   1.000
    O578    O    0.91052   0.47524   0.38238   1.000
    O579    O    0.38143   0.97384   0.58983   1.000
    O580    O    0.40971   0.02426   0.61948   1.000
    O581    O    0.88120   0.40997   0.52465   1.000
    O582    O    0.52671   0.58947   0.88045   1.000
    O583    O    0.47594   0.58872   0.88051   1.000
    O584    O    0.52630   0.61792   0.90904   1.000
    O585    O    0.41118   0.52763   0.11944   1.000
    O586    O    0.38215   0.47721   0.09066   1.000
    O587    O    0.41086   0.47741   0.11928   1.000
    O588    O    0.38158   0.41186   0.97720   1.000
    O589    O    0.38151   0.41220   0.02700   1.000
    O590    O    0.41015   0.38367   0.02675   1.000
    O591    O    0.41031   0.38376   0.97673   1.000
    O592    O    0.02388   0.09009   0.11675   1.000
    O593    O    0.02430   0.11859   0.08820   1.000
    O594    O    0.97546   0.61723   0.58985   1.000
    O595    O    0.02569   0.61733   0.58983   1.000
    O596    O    0.02581   0.58841   0.61833   1.000
    O597    O    0.97528   0.58820   0.61820   1.000
    O598    O    0.02590   0.08962   0.87998   1.000
    O599    O    0.02615   0.11823   0.90836   1.000
    O600    O    0.97633   0.08986   0.87937   1.000
    O601    O    0.91140   0.97490   0.87912   1.000
    O602    O    0.91032   0.52495   0.38238   1.000
    O603    O    0.88130   0.47478   0.41100   1.000
    O604    O    0.91031   0.61840   0.52592   1.000
    O605    O    0.61719   0.97588   0.59026   1.000
    O606    O    0.11887   0.08828   0.97430   1.000
    O607    O    0.61717   0.08998   0.47560   1.000
    O608    O    0.58834   0.97576   0.61937   1.000
    O609    O    0.90995   0.38143   0.47453   1.000
    O610    O    0.90906   0.97557   0.11707   1.000
    O611    O    0.09005   0.11709   0.97363   1.000
    O612    O    0.08738   0.97299   0.11785   1.000
    O613    O    0.08767   0.02411   0.11745   1.000
    O614    O    0.08980   0.11696   0.02424   1.000
    O615    O    0.47498   0.41079   0.88220   1.000
    O616    O    0.61721   0.02637   0.59039   1.000
    O617    O    0.61707   0.09038   0.52599   1.000
    O618    O    0.91193   0.02547   0.87885   1.000
    O619    O    0.91010   0.38147   0.52428   1.000
    O620    O    0.52440   0.38181   0.91107   1.000
    O621    O    0.88113   0.40984   0.47462   1.000
    O622    O    0.11680   0.97307   0.08887   1.000
    O623    O    0.47454   0.38262   0.91103   1.000
loop_
    _geom_bond_atom_site_label_1
    _geom_bond_atom_site_label_2
    _geom_bond_distance
    _geom_bond_site_symmetry_2
    _ccdc_geom_bond_type
    Zr96   O97       3.11610      .   S
    N1     O97       8.46552      .   S
    Zr96   O98       3.17346      .   S
    N2     O98       8.59795      .   S
    Zr99   O100      3.48009      .   S
    N1     O100      8.88277      .   S
    Zr99   O101      3.30912      .   S
    N3     O101      8.67495      .   S
    Zr102  O103      3.18021      .   S
    N3     O103      8.62069      .   S
    Zr102  O104      3.10202      .   S
    N2     O104      8.43780      .   S
    Zr105  O106      3.13386      .   S
    N4     O106      8.50320      .   S
    Zr105  O107      3.18224      .   S
    N5     O107      8.63141      .   S
    Zr108  O109      3.13854      .   S
    N4     O109      8.52349      .   S
    Zr108  O110      3.14827      .   S
    N6     O110      8.55224      .   S
    Zr111  O112      3.47767      .   S
    N5     O112      8.85996      .   S
    Zr111  O113      3.31803      .   S
    N6     O113      8.71815      .   S
    Zr114  O115      3.14613      .   S
    N7     O115      8.54326      .   S
    Zr114  O116      3.16228      .   S
    N8     O116      8.57605      .   S
    Zr117  O118      3.48314      .   S
    N7     O118      8.89825      .   S
    Zr117  O119      3.30981      .   S
    N9     O119      8.67146      .   S
    Zr120  O121      3.16235      .   S
    N9     O121      8.57828      .   S
    Zr120  O122      3.13198      .   S
    N8     O122      8.51842      .   S
    Zr123  O124      3.12446      .   S
    N11    O124      8.49422      .   S
    Zr123  O125      3.18014      .   S
    N10    O125      8.62550      .   S
    Zr126  O127      3.29565      .   S
    N12    O127      8.68289      .   S
    Zr126  O128      3.47965      .   S
    N10    O128      8.85035      .   S
    Zr129  O130      3.11063      .   S
    N12    O130      8.45116      .   S
    Zr129  O131      3.16670      .   S
    N11    O131      8.59451      .   S
    Zr132  O133      3.17286      .   S
    N14    O133      8.61021      .   S
    Zr132  O134      3.12374      .   S
    N13    O134      8.48062      .   S
    Zr135  O136      3.15491      .   S
    N15    O136      8.56874      .   S
    Zr135  O137      3.14566      .   S
    N13    O137      8.53650      .   S
    Zr138  O139      3.31665      .   S
    N15    O139      8.72144      .   S
    Zr138  O140      3.48439      .   S
    N14    O140      8.87453      .   S
    Zr141  O142      3.14525      .   S
    N16    O142      8.52953      .   S
    Zr141  O143      3.13852      .   S
    N17    O143      8.51723      .   S
    Zr144  O145      3.16483      .   S
    N18    O145      8.58603      .   S
    Zr144  O146      3.13362      .   S
    N16    O146      8.51392      .   S
    Zr147  O148      3.31446      .   S
    N18    O148      8.68760      .   S
    Zr147  O149      3.47280      .   S
    N17    O149      8.86407      .   S
    Zr150  O151      3.12006      .   S
    N20    O151      8.47452      .   S
    Zr150  O152      3.17250      .   S
    N19    O152      8.59263      .   S
    Zr153  O154      3.17889      .   S
    N21    O154      8.61647      .   S
    Zr153  O155      3.09181      .   S
    N19    O155      8.41425      .   S
    Zr156  O157      3.31085      .   S
    N21    O157      8.66729      .   S
    Zr156  O158      3.47601      .   S
    N20    O158      8.87427      .   S
    Zr159  O160      3.15393      .   S
    N22    O160      8.56287      .   S
    Zr159  O161      3.14770      .   S
    N23    O161      8.53535      .   S
    Zr162  O163      3.31280      .   S
    N24    O163      8.69158      .   S
    Zr162  O164      3.48492      .   S
    N22    O164      8.90463      .   S
    Zr165  O166      3.13231      .   S
    N23    O166      8.51236      .   S
    Zr165  O167      3.15293      .   S
    N24    O167      8.55883      .   S
    Zr168  O169      3.16535      .   S
    N25    O169      8.59356      .   S
    Zr168  O170      3.16974      .   S
    N26    O170      8.60067      .   S
    Zr171  O172      3.49657      .   S
    N25    O172      8.89755      .   S
    Zr171  O173      3.31429      .   S
    N27    O173      8.70852      .   S
    Zr174  O175      3.17660      .   S
    N27    O175      8.61722      .   S
    Zr174  O176      3.13616      .   S
    N26    O176      8.52276      .   S
    Zr177  O178      3.17594      .   S
    N29    O178      8.61666      .   S
    Zr177  O179      3.14285      .   S
    N28    O179      8.53445      .   S
    Zr180  O181      3.15400      .   S
    N28    O181      8.56630      .   S
    Zr180  O182      3.13939      .   S
    N0     O182      8.52769      .   S
    Zr183  O184      3.48011      .   S
    N29    O184      8.86386      .   S
    Zr183  O185      3.30973      .   S
    N0     O185      8.70400      .   S
    Zr186  O187      3.18671      .   S
    N30    O187      8.63976      .   S
    Zr186  O188      3.13471      .   S
    N31    O188      8.52070      .   S
    Zr189  O190      3.48556      .   S
    N30    O190      8.85616      .   S
    Zr189  O191      3.31774      .   S
    N32    O191      8.75890      .   S
    Zr192  O193      3.12581      .   S
    N32    O193      8.50073      .   S
    Zr192  O194      3.17427      .   S
    N31    O194      8.61458      .   S
    Zr195  O196      3.15118      .   S
    N34    O196      8.54860      .   S
    Zr195  O197      3.14173      .   S
    N33    O197      8.52935      .   S
    Zr198  O199      3.47450      .   S
    N33    O199      8.83881      .   S
    Zr198  O200      3.31189      .   S
    N35    O200      8.70068      .   S
    Zr201  O202      3.11682      .   S
    N34    O202      8.46568      .   S
    Zr201  O203      3.17491      .   S
    N35    O203      8.61187      .   S
    Zr204  O205      3.14690      .   S
    N36    O205      8.54771      .   S
    Zr204  O206      3.15864      .   S
    N37    O206      8.57028      .   S
    Zr207  O208      3.31128      .   S
    N38    O208      8.69012      .   S
    Zr207  O209      3.47381      .   S
    N36    O209      8.85699      .   S
    Zr210  O211      3.16964      .   S
    N38    O211      8.59784      .   S
    Zr210  O212      3.11764      .   S
    N37    O212      8.47485      .   S
    Zr213  O214      3.13063      .   S
    N39    O214      8.50958      .   S
    Zr213  O215      3.17078      .   S
    N40    O215      8.59204      .   S
    Zr216  O217      3.41177      .   S
    N39    O217      8.84250      .   S
    Zr216  O218      3.25372      .   S
    N41    O218      8.62236      .   S
    Zr219  O220      3.28728      .   S
    N41    O220      8.72654      .   S
    Zr219  O221      3.37871      .   S
    N40    O221      8.71800      .   S
    Zr222  O223      3.11283      .   S
    N43    O223      8.45720      .   S
    Zr222  O224      3.18443      .   S
    N42    O224      8.63160      .   S
    Zr225  O226      3.30912      .   S
    N44    O226      8.74123      .   S
    Zr225  O227      3.48193      .   S
    N42    O227      8.84034      .   S
    Zr228  O229      3.15743      .   S
    N43    O229      8.56210      .   S
    Zr228  O230      3.11973      .   S
    N44    O230      8.48340      .   S
    Zr231  O232      3.47922      .   S
    N46    O232      8.85542      .   S
    Zr231  O233      3.31373      .   S
    N52    O233      8.71464      .   S
    Zr234  O235      3.13758      .   S
    N54    O235      8.51493      .   S
    Zr234  O236      3.14737      .   S
    N51    O236      8.53319      .   S
    Zr237  O238      3.16207      .   S
    N56    O238      8.57839      .   S
    Zr237  O239      3.12465      .   S
    N51    O239      8.49426      .   S
    Zr240  O241      3.47204      .   S
    N54    O241      8.86521      .   S
    Zr240  O242      3.31161      .   S
    N56    O242      8.67834      .   S
    Zr243  O244      3.15878      .   S
    N55    O244      8.57381      .   S
    Zr243  O245      3.16626      .   S
    N58    O245      8.58679      .   S
    Zr246  O247      3.30096      .   S
    N59    O247      8.68114      .   S
    Zr246  O248      3.49103      .   S
    N55    O248      8.87740      .   S
    Zr249  O250      3.16912      .   S
    N59    O250      8.59623      .   S
    Zr249  O251      3.12207      .   S
    N58    O251      8.48524      .   S
    Zr252  O253      3.14892      .   S
    N60    O253      8.54598      .   S
    Zr252  O254      3.16795      .   S
    N57    O254      8.59437      .   S
    Zr255  O256      3.31488      .   S
    N61    O256      8.70524      .   S
    Zr255  O257      3.47520      .   S
    N60    O257      8.84302      .   S
    Zr258  O259      3.12509      .   S
    N57    O259      8.49651      .   S
    Zr258  O260      3.16814      .   S
    N61    O260      8.59735      .   S
    Zr261  O262      3.16259      .   S
    N62    O262      8.58156      .   S
    Zr261  O263      3.14595      .   S
    N46    O263      8.54047      .   S
    Zr264  O265      3.12966      .   S
    N62    O265      8.50566      .   S
    Zr264  O266      3.16538      .   S
    N52    O266      8.59287      .   S
    Zr267  O268      3.17141      .   S
    N63    O268      8.60600      .   S
    Zr267  O269      3.13351      .   S
    N53    O269      8.50957      .   S
    Zr270  O271      3.14637      .   S
    N64    O271      8.54712      .   S
    Zr270  O272      3.15131      .   S
    N53    O272      8.55670      .   S
    Zr273  O274      3.31041      .   S
    N64    O274      8.70762      .   S
    Zr273  O275      3.48139      .   S
    N63    O275      8.86603      .   S
    Zr276  O277      3.14546      .   S
    N65    O277      8.53042      .   S
    Zr276  O278      3.14739      .   S
    N66    O278      8.54836      .   S
    Zr279  O280      3.35666      .   S
    N65    O280      8.72787      .   S
    Zr279  O281      3.27078      .   S
    N67    O281      8.67098      .   S
    Zr282  O283      3.34776      .   S
    N66    O283      8.76696      .   S
    Zr282  O284      3.26784      .   S
    N67    O284      8.65001      .   S
    Zr285  O286      3.15205      .   S
    N68    O286      8.56158      .   S
    Zr285  O287      3.16598      .   S
    N69    O287      8.58765      .   S
    Zr288  O289      3.48909      .   S
    N68    O289      8.88783      .   S
    Zr288  O290      3.30819      .   S
    N70    O290      8.69696      .   S
    Zr291  O292      3.16357      .   S
    N70    O292      8.58571      .   S
    Zr291  O293      3.12213      .   S
    N69    O293      8.48737      .   S
    Zr294  O295      3.13077      .   S
    N45    O295      8.50793      .   S
    Zr294  O296      3.17256      .   S
    N71    O296      8.60949      .   S
    Zr297  O298      3.23708      .   S
    N72    O298      8.65904      .   S
    Zr297  O299      3.34889      .   S
    N45    O299      8.76598      .   S
    Zr300  O301      3.29824      .   S
    N72    O301      8.70059      .   S
    Zr300  O302      3.28549      .   S
    N71    O302      8.66952      .   S
    Zr303  O304      3.15634      .   S
    N73    O304      8.56953      .   S
    Zr303  O305      3.16851      .   S
    N74    O305      8.59321      .   S
    Zr306  O307      3.31323      .   S
    N75    O307      8.68693      .   S
    Zr306  O308      3.48933      .   S
    N73    O308      8.91336      .   S
    Zr309  O310      3.16071      .   S
    N75    O310      8.57717      .   S
    Zr309  O311      3.14198      .   S
    N74    O311      8.54470      .   S
    Zr312  O313      3.15642      .   S
    N50    O313      8.57349      .   S
    Zr312  O314      3.16215      .   S
    N76    O314      8.58266      .   S
    Zr315  O316      3.12980      .   S
    N76    O316      8.50675      .   S
    Zr315  O317      3.17386      .   S
    N77    O317      8.61054      .   S
    Zr318  O319      3.49012      .   S
    N50    O319      8.88972      .   S
    Zr318  O320      3.31667      .   S
    N77    O320      8.70649      .   S
    Zr321  O322      3.16708      .   S
    N78    O322      8.59104      .   S
    Zr321  O323      3.15477      .   S
    N79    O323      8.56820      .   S
    Zr324  O325      3.16926      .   S
    N47    O325      8.60056      .   S
    Zr324  O326      3.14511      .   S
    N78    O326      8.55161      .   S
    Zr327  O328      3.32137      .   S
    N47    O328      8.71242      .   S
    Zr327  O329      3.49429      .   S
    N79    O329      8.92904      .   S
    Zr330  O331      3.17370      .   S
    N80    O331      8.61072      .   S
    Zr330  O332      3.14259      .   S
    N81    O332      8.53131      .   S
    Zr333  O334      3.47790      .   S
    N80    O334      8.86067      .   S
    Zr333  O335      3.31472      .   S
    N82    O335      8.71687      .   S
    Zr336  O337      3.14504      .   S
    N82    O337      8.54504      .   S
    Zr336  O338      3.14794      .   S
    N81    O338      8.55161      .   S
    Zr339  O340      3.11773      .   S
    N84    O340      8.48009      .   S
    Zr339  O341      3.17786      .   S
    N83    O341      8.61538      .   S
    Zr342  O343      3.36143      .   S
    N83    O343      8.70742      .   S
    Zr342  O344      3.27096      .   S
    N85    O344      8.69821      .   S
    Zr345  O346      3.35431      .   S
    N84    O346      8.77975      .   S
    Zr345  O347      3.26077      .   S
    N85    O347      8.61931      .   S
    Zr348  O349      3.16421      .   S
    N49    O349      8.58419      .   S
    Zr348  O350      3.15111      .   S
    N86    O350      8.55605      .   S
    Zr351  O352      3.48929      .   S
    N86    O352      8.91067      .   S
    Zr351  O353      3.31303      .   S
    N87    O353      8.68233      .   S
    Zr354  O355      3.14416      .   S
    N49    O355      8.54848      .   S
    Zr354  O356      3.16868      .   S
    N87    O356      8.59447      .   S
    Zr357  O358      3.16425      .   S
    N88    O358      8.58579      .   S
    Zr357  O359      3.14902      .   S
    N89    O359      8.55248      .   S
    Zr360  O361      3.39972      .   S
    N88    O361      8.76319      .   S
    Zr360  O362      3.23608      .   S
    N48    O362      8.65846      .   S
    Zr363  O364      3.33577      .   S
    N89    O364      8.71702      .   S
    Zr363  O365      3.29037      .   S
    N48    O365      8.67349      .   S
    Zr366  O367      3.14266      .   S
    N90    O367      8.53484      .   S
    Zr366  O368      3.14962      .   S
    N91    O368      8.55074      .   S
    Zr369  O370      3.30920      .   S
    N90    O370      8.72561      .   S
    Zr369  O371      3.26895      .   S
    N92    O371      8.63914      .   S
    Zr372  O373      3.30725      .   S
    N91    O373      8.72105      .   S
    Zr372  O374      3.25497      .   S
    N92    O374      8.67437      .   S
    Zr375  O376      3.16627      .   S
    N93    O376      8.58957      .   S
    Zr375  O377      3.14660      .   S
    N94    O377      8.53862      .   S
    Zr378  O379      3.12378      .   S
    N93    O379      8.49288      .   S
    Zr378  O380      3.16449      .   S
    N95    O380      8.58717      .   S
    Zr381  O382      3.47402      .   S
    N94    O382      8.83787      .   S
    Zr381  O383      3.30835      .   S
    N95    O383      8.69263      .   S
    N21    O432      7.22966      .   S
    Zr416  O432      2.67101      .   S
    N21    O433      7.12952      .   S
    Zr418  O433      2.63730  1_565   S
    N64    O434      7.21199      .   S
    Zr415  O434      2.66430      .   S
    N64    O435      7.15268      .   S
    Zr408  O435      2.64642      .   S
    N12    O436      7.12861      .   S
    Zr406  O436      2.63669      .   S
    N12    O437      7.16314      .   S
    Zr404  O437      2.65071      .   S
    N15    O438      7.24707      .   S
    Zr392  O438      2.67662  1_556   S
    N15    O439      7.11434      .   S
    Zr385  O439      2.63067      .   S
    N43    O440      7.21284      .   S
    Zr397  O440      2.66591  1_655   S
    N43    O441      7.12770      .   S
    Zr405  O441      2.63625      .   S
    N11    O442      7.15070      .   S
    Zr415  O442      2.64544      .   S
    N11    O443      7.23143      .   S
    Zr412  O443      2.67259      .   S
    N20    O444      7.16491      .   S
    Zr403  O444      2.65063      .   S
    N20    O445      7.19769      .   S
    Zr400  O445      2.65891      .   S
    N38    O446      7.10544      .   S
    Zr393  O446      2.62717      .   S
    N38    O447      7.25061      .   S
    Zr389  O447      2.67904  1_545   S
    N39    O448      7.25761      .   S
    Zr400  O448      2.68372      .   S
    N39    O449      7.11211      .   S
    Zr407  O449      2.62947      .   S
    N59    O450      7.09851      .   S
    Zr428  O450      2.62384      .   S
    N59    O451      7.24645      .   S
    Zr421  O451      2.67960      .   S
    N49    O452      7.22398      .   S
    Zr384  O452      2.66986  1_565   S
    N49    O453      7.13941      .   S
    Zr390  O453      2.64042  1_556   S
    N50    O454      7.20746      .   S
    Zr393  O454      2.66138  1_556   S
    N50    O455      7.14842      .   S
    Zr385  O455      2.64306  1_545   S
    N44    O456      7.25669      .   S
    Zr414  O456      2.68209      .   S
    N44    O457      7.11617      .   S
    Zr410  O457      2.63093      .   S
    N55    O458      7.23196      .   S
    Zr412  O458      2.67249      .   S
    N55    O459      7.13989      .   S
    Zr418  O459      2.64206      .   S
    N63    O460      7.16581      .   S
    Zr398  O460      2.65054      .   S
    N63    O461      7.22529      .   S
    Zr404  O461      2.66934      .   S
    N76    O462      7.15255      .   S
    Zr411  O462      2.64539  1_545   S
    N76    O463      7.17323      .   S
    Zr408  O463      2.65018      .   S
    N1     O464      7.10910      .   S
    Zr410  O464      2.62933      .   S
    N1     O465      7.26058      .   S
    Zr408  O465      2.68442      .   S
    N34    O466      7.14334      .   S
    Zr409  O466      2.64188      .   S
    N34    O467      7.18533      .   S
    Zr417  O467      2.65358      .   S
    Zr416  O468      2.67136      .   S
    N56    O468      7.23093      .   S
    Zr416  O469      2.67832      .   S
    N71    O469      7.24704      .   S
    Zr416  O470      2.67952      .   S
    N94    O470      7.24962      .   S
    Zr388  O471      2.60798      .   S
    N58    O471      7.05957      .   S
    Zr388  O472      2.68623  1_565   S
    N27    O472      7.26448      .   S
    Zr388  O473      2.69145  1_565   S
    N19    O473      7.27860      .   S
    Zr388  O474      2.64414      .   S
    N80    O474      7.14814      .   S
    N61    O475      7.12797      .   S
    Zr392  O475      2.63556      .   S
    N61    O476      7.24514      .   S
    Zr394  O476      2.67784  1_455   S
    N75    O477      7.19728      .   S
    Zr413  O477      2.65855      .   S
    N75    O478      7.09466      .   S
    Zr417  O478      2.62188      .   S
    Zr413  O479      2.66741      .   S
    N65    O479      7.20446      .   S
    Zr413  O480      2.62726      .   S
    N94    O480      7.10096      .   S
    Zr413  O481      2.64043      .   S
    N25    O481      7.13849      .   S
    N52    O482      7.20462      .   S
    Zr397  O482      2.66340      .   S
    N52    O483      7.19622      .   S
    Zr404  O483      2.66303      .   S
    N65    O484      7.17751      .   S
    Zr419  O484      2.65165      .   S
    Zr387  O485      2.68037  1_655   S
    N17    O485      7.24954      .   S
    Zr387  O486      2.64883      .   S
    N46    O486      7.17127      .   S
    Zr387  O487      2.64270  1_655   S
    N42    O487      7.14641      .   S
    Zr387  O488      2.63398      .   S
    N48    O488      7.12161      .   S
    Zr414  O489      2.64813      .   S
    N23    O489      7.15549      .   S
    Zr414  O490      2.64622      .   S
    N81    O490      7.15618      .   S
    Zr414  O491      2.66936      .   S
    N85    O491      7.22517      .   S
    N62    O492      7.11970      .   S
    Zr411  O492      2.63214  1_545   S
    N62    O493      7.19566      .   S
    Zr415  O493      2.65936      .   S
    N58    O494      7.21538      .   S
    Zr391  O494      2.66617  1_554   S
    Zr411  O495      2.62807      .   S
    N13    O495      7.10506      .   S
    Zr411  O496      2.62830      .   S
    N32    O496      7.10725      .   S
    Zr423  O497      2.67398      .   S
    N73    O497      7.23451      .   S
    Zr423  O498      2.68916      .   S
    N10    O498      7.27423      .   S
    Zr423  O499      2.61279      .   S
    N57    O499      7.06866      .   S
    Zr423  O500      2.65636      .   S
    N0     O500      7.18341      .   S
    Zr392  O501      2.63863      .   S
    N66    O501      7.13504      .   S
    Zr392  O502      2.69871  1_556   S
    N5     O502      7.29935      .   S
    Zr391  O503      2.63691      .   S
    N17    O503      7.12902      .   S
    Zr391  O504      2.65054  1_554   S
    N70    O504      7.16528      .   S
    Zr391  O505      2.63899      .   S
    N3     O505      7.13502      .   S
    Zr403  O506      2.64225      .   S
    N54    O506      7.14159      .   S
    Zr403  O507      2.67432      .   S
    N72    O507      7.23658      .   S
    Zr403  O508      2.66124      .   S
    N95    O508      7.20254      .   S
    N66    O509      7.24361      .   S
    Zr389  O509      2.67786      .   S
    N53    O510      7.08441      .   S
    Zr425  O510      2.61872      .   S
    N53    O511      7.22311      .   S
    Zr431  O511      2.66824      .   S
    N77    O512      7.12806      .   S
    Zr425  O512      2.63678      .   S
    N77    O513      7.27893      .   S
    Zr429  O513      2.69057      .   S
    N54    O514      7.25876      .   S
    Zr399  O514      2.68401      .   S
    N56    O515      7.08865      .   S
    Zr409  O515      2.62048      .   S
    Zr427  O516      2.66037      .   S
    N14    O516      7.19859      .   S
    Zr427  O517      2.67137      .   S
    N6     O517      7.22801      .   S
    Zr427  O518      2.65737  1_554   S
    N67    O518      7.19385      .   S
    Zr427  O519      2.68581  1_554   S
    N57    O519      7.26767      .   S
    N30    O520      7.15619      .   S
    Zr386  O520      2.64683      .   S
    N30    O521      7.26361      .   S
    Zr385  O521      2.68498      .   S
    N73    O522      7.21160      .   S
    Zr420  O522      2.66855      .   S
    Zr396  O523      2.65157  1_455   S
    N4     O523      7.18057      .   S
    Zr396  O524      2.68313  1_455   S
    N31    O524      7.26075      .   S
    Zr396  O525      2.65429      .   S
    N72    O525      7.17706      .   S
    Zr396  O526      2.65578      .   S
    N78    O526      7.17781      .   S
    Zr400  O527      2.68073  1_455   S
    N60    O527      7.25311      .   S
    Zr400  O528      2.66535  1_455   S
    N92    O528      7.21293      .   S
    Zr415  O529      2.62000      .   S
    N9     O529      7.08670      .   S
    Zr412  O530      2.64795      .   S
    N36    O530      7.15827      .   S
    Zr412  O531      2.63642      .   S
    N85    O531      7.13015      .   S
    Zr428  O532      2.68559  1_556   S
    N18    O532      7.26621      .   S
    Zr428  O533      2.67604  1_556   S
    N2     O533      7.24005      .   S
    Zr428  O534      2.67195      .   S
    N69    O534      7.22724      .   S
    Zr425  O535      2.67957      .   S
    N22    O535      7.24822      .   S
    Zr425  O536      2.63876      .   S
    N2     O536      7.13559      .   S
    Zr395  O537      2.66750      .   S
    N7     O537      7.22054      .   S
    Zr395  O538      2.64344      .   S
    N29    O538      7.14665      .   S
    Zr395  O539      2.67707  1_655   S
    N80    O539      7.24025      .   S
    Zr395  O540      2.65721  1_655   S
    N70    O540      7.19056      .   S
    Zr393  O541      2.67848      .   S
    N29    O541      7.24482      .   S
    Zr393  O542      2.69082  1_556   S
    N48    O542      7.27798      .   S
    Zr424  O543      2.66258      .   S
    N14    O543      7.19509      .   S
    Zr424  O544      2.63817      .   S
    N33    O544      7.13295      .   S
    Zr424  O545      2.67031      .   S
    N87    O545      7.22483      .   S
    Zr424  O546      2.63885      .   S
    N51    O546      7.13256      .   S
    Zr429  O547      2.66941      .   S
    N89    O547      7.22350      .   S
    Zr429  O548      2.66604  1_554   S
    N37    O548      7.21551      .   S
    Zr429  O549      2.65304  1_554   S
    N0     O549      7.18168      .   S
    N18    O550      7.07403      .   S
    Zr430  O550      2.61467      .   S
    Zr406  O551      2.66129      .   S
    N74    O551      7.20317      .   S
    Zr406  O552      2.63398      .   S
    N60    O552      7.12037      .   S
    Zr406  O553      2.64015      .   S
    N28    O553      7.13983      .   S
    N23    O554      7.22045      .   S
    Zr408  O554      2.66774      .   S
    N5     O555      7.11427      .   S
    Zr386  O555      2.63047      .   S
    Zr399  O556      2.64929      .   S
    N24    O556      7.17057      .   S
    Zr399  O557      2.63842      .   S
    N16    O557      7.13017      .   S
    Zr399  O558      2.65985      .   S
    N78    O558      7.20051      .   S
    Zr431  O559      2.67396      .   S
    N33    O559      7.23313      .   S
    Zr431  O560      2.64589      .   S
    N89    O560      7.15235      .   S
    Zr431  O561      2.64528      .   S
    N6     O561      7.15119      .   S
    Zr410  O562      2.64759  1_565   S
    N71    O562      7.15777      .   S
    Zr410  O563      2.67367  1_565   S
    N86    O563      7.23539      .   S
    Zr397  O564      2.67535  1_655   S
    N16    O564      7.23807      .   S
    Zr397  O565      2.66217      .   S
    N88    O565      7.20343      .   S
    Zr405  O566      2.63930      .   S
    N24    O566      7.13891      .   S
    Zr405  O567      2.64697      .   S
    N82    O567      7.15524      .   S
    Zr405  O568      2.63063      .   S
    N84    O568      7.11414      .   S
    Zr407  O569      2.67788      .   S
    N84    O569      7.24259      .   S
    Zr407  O570      2.64302      .   S
    N95    O570      7.14561      .   S
    Zr407  O571      2.65023      .   S
    N68    O571      7.16416      .   S
    Zr422  O572      2.67717      .   S
    N41    O572      7.23994      .   S
    Zr422  O573      2.63451      .   S
    N83    O573      7.12316      .   S
    Zr422  O574      2.67538      .   S
    N93    O574      7.23597      .   S
    Zr422  O575      2.61530      .   S
    N69    O575      7.07675      .   S
    Zr409  O576      2.67179      .   S
    N13    O576      7.22743      .   S
    Zr409  O577      2.65710      .   S
    N86    O577      7.18084      .   S
    N4     O578      7.15223      .   S
    Zr398  O578      2.64546      .   S
    Zr418  O579      2.63645      .   S
    N81    O579      7.13879      .   S
    Zr418  O580      2.68100  1_565   S
    N25    O580      7.25234      .   S
    N74    O581      7.20912      .   S
    Zr402  O581      2.66796      .   S
    Zr421  O582      2.63593      .   S
    N10    O582      7.12673      .   S
    Zr421  O583      2.67127      .   S
    N83    O583      7.22641      .   S
    Zr421  O584      2.63117      .   S
    N37    O584      7.11611      .   S
    Zr430  O585      2.64315      .   S
    N22    O585      7.14454      .   S
    Zr430  O586      2.69508      .   S
    N79    O586      7.28730      .   S
    Zr430  O587      2.65659      .   S
    N51    O587      7.19115      .   S
    Zr426  O588      2.64014  1_554   S
    N41    O588      7.14069      .   S
    Zr426  O589      2.64210      .   S
    N79    O589      7.14461      .   S
    Zr426  O590      2.62555      .   S
    N87    O590      7.10247      .   S
    Zr426  O591      2.67253  1_554   S
    N26    O591      7.23303      .   S
    Zr386  O592      2.63701  1_655   S
    N45    O592      7.13221      .   S
    Zr386  O593      2.64069  1_655   S
    N47    O593      7.14152      .   S
    Zr401  O594      2.65529  1_455   S
    N8     O594      7.18569      .   S
    Zr401  O595      2.65973      .   S
    N82    O595      7.19562      .   S
    Zr401  O596      2.64981      .   S
    N68    O596      7.17181      .   S
    Zr401  O597      2.65948  1_455   S
    N28    O597      7.19633      .   S
    Zr394  O598      2.60908      .   S
    N19    O598      7.05946      .   S
    Zr394  O599      2.63603      .   S
    N40    O599      7.12621      .   S
    Zr394  O600      2.65703  1_455   S
    N90    O600      7.18159      .   S
    N7     O601      7.15625      .   S
    Zr389  O601      2.64680  1_545   S
    Zr398  O602      2.62303      .   S
    N88    O602      7.09696      .   S
    Zr398  O603      2.68341      .   S
    N35    O603      7.25698      .   S
    N8     O604      7.14216      .   S
    Zr404  O604      2.64130      .   S
    N9     O605      7.23134      .   S
    Zr419  O605      2.67205  1_545   S
    N27    O606      7.12756      .   S
    Zr390  O606      2.63479      .   S
    N32    O607      7.30856      .   S
    Zr417  O607      2.70268      .   S
    N36    O608      7.20526      .   S
    Zr419  O608      2.66225  1_545   S
    N31    O609      7.12753      .   S
    Zr402  O609      2.63534      .   S
    N46    O610      7.20603      .   S
    Zr385  O610      2.66663  1_545   S
    N40    O611      7.26131      .   S
    Zr390  O611      2.68479      .   S
    N42    O612      7.23102      .   S
    Zr384  O612      2.67223      .   S
    N45    O613      7.22600      .   S
    Zr384  O613      2.66931  1_565   S
    N47    O614      7.24061      .   S
    Zr390  O614      2.67501  1_556   S
    N93    O615      7.09767      .   S
    Zr420  O615      2.62462      .   S
    N91    O616      7.22356      .   S
    Zr419  O616      2.67131      .   S
    N91    O617      7.17247      .   S
    Zr417  O617      2.65383      .   S
    N90    O618      7.20159      .   S
    Zr389  O618      2.66125      .   S
    N92    O619      7.10671      .   S
    Zr402  O619      2.62658      .   S
    N67    O620      7.15496      .   S
    Zr420  O620      2.64576      .   S
    N35    O621      7.14298      .   S
    Zr402  O621      2.64198      .   S
    Zr384  O622      2.67529      .   S
    N3     O622      7.23578      .   S
    Zr420  O623      2.62793      .   S
    N26    O623      7.10956      .   S
