# CIF file generated by openbabel 2.4.90, see http://openbabel.sf.net
data_I
_chemical_name_common ''
_cell_length_a 11.6884
_cell_length_b 5.5643
_cell_length_c 22.8159
_cell_angle_alpha 90
_cell_angle_beta 100.691
_cell_angle_gamma 90
_space_group_name_H-M_alt 'P 1'
_space_group_name_Hall 'P 1'
loop_
    _symmetry_equiv_pos_as_xyz
    x,y,z
loop_
    _atom_site_label
    _atom_site_type_symbol
    _atom_site_fract_x
    _atom_site_fract_y
    _atom_site_fract_z
    _atom_site_occupancy
    C0      C    0.86258   0.75633   0.27818   1.000
    C1      C    0.10145   0.96454   0.39330   1.000
    C2      C    0.23970   0.91505   0.69092   1.000
    C3      C    0.23621   0.52343   0.67212   1.000
    C4      C    0.54211   0.91879   0.24461   1.000
    C5      C    0.51296   0.52383   0.25348   1.000
    C6      C    0.08446   0.22059   0.38950   1.000
    C7      C    0.00494   0.80562   0.37030   1.000
    C8      C    0.14670   0.89090   0.46929   1.000
    C9      C    0.20595   0.06200   0.50775   1.000
    C10     C    0.22780   0.21110   0.49280   1.000
    C11     C    0.23276   0.01220   0.56837   1.000
    C12     C    0.27220   0.12830   0.59530   1.000
    C13     C    0.20170   0.79140   0.58960   1.000
    C14     C    0.14677   0.61880   0.55025   1.000
    C15     C    0.12870   0.46630   0.56490   1.000
    C16     C    0.11802   0.66700   0.48962   1.000
    C17     C    0.07960   0.54990   0.46260   1.000
    C18     C    0.22619   0.73840   0.65525   1.000
    C19     C    0.21873   0.89080   0.35811   1.000
    C20     C    0.30779   0.05910   0.35955   1.000
    C21     C    0.30710   0.20510   0.38110   1.000
    C22     C    0.39763   0.00980   0.32897   1.000
    C23     C    0.45760   0.12450   0.32850   1.000
    C24     C    0.39952   0.79180   0.29902   1.000
    C25     C    0.31163   0.62320   0.29972   1.000
    C26     C    0.31460   0.47320   0.28010   1.000
    C27     C    0.21940   0.67210   0.32884   1.000
    C28     C    0.15860   0.55880   0.32870   1.000
    C29     C    0.49352   0.74100   0.26289   1.000
    C30     C    0.63742   0.25633   0.22182   1.000
    C31     C    0.39855   0.46454   0.10670   1.000
    C32     C    0.26030   0.41505   0.80908   1.000
    C33     C    0.26379   0.02343   0.82788   1.000
    C34     C    0.95789   0.41879   0.25539   1.000
    C35     C    0.98704   0.02383   0.24652   1.000
    C36     C    0.41554   0.72059   0.11050   1.000
    C37     C    0.49506   0.30562   0.12970   1.000
    C38     C    0.35330   0.39090   0.03071   1.000
    C39     C    0.29405   0.56200   0.99225   1.000
    C40     C    0.27220   0.71110   0.00720   1.000
    C41     C    0.26724   0.51220   0.93163   1.000
    C42     C    0.22780   0.62830   0.90470   1.000
    C43     C    0.29830   0.29140   0.91040   1.000
    C44     C    0.35323   0.11880   0.94975   1.000
    C45     C    0.37130   0.96630   0.93510   1.000
    C46     C    0.38198   0.16700   0.01038   1.000
    C47     C    0.42040   0.04990   0.03740   1.000
    C48     C    0.27381   0.23840   0.84475   1.000
    C49     C    0.28127   0.39080   0.14189   1.000
    C50     C    0.19221   0.55910   0.14045   1.000
    C51     C    0.19290   0.70510   0.11890   1.000
    C52     C    0.10237   0.50980   0.17103   1.000
    C53     C    0.04240   0.62450   0.17150   1.000
    C54     C    0.10048   0.29180   0.20098   1.000
    C55     C    0.18837   0.12320   0.20028   1.000
    C56     C    0.18540   0.97320   0.21990   1.000
    C57     C    0.28060   0.17210   0.17116   1.000
    C58     C    0.34140   0.05880   0.17130   1.000
    C59     C    0.00648   0.24100   0.23711   1.000
    C60     C    0.13742   0.24367   0.72182   1.000
    C61     C    0.89855   0.03546   0.60670   1.000
    C62     C    0.76030   0.08495   0.30908   1.000
    C63     C    0.76379   0.47657   0.32788   1.000
    C64     C    0.45789   0.08121   0.75539   1.000
    C65     C    0.48704   0.47617   0.74652   1.000
    C66     C    0.91554   0.77941   0.61050   1.000
    C67     C    0.99506   0.19438   0.62970   1.000
    C68     C    0.85330   0.10910   0.53071   1.000
    C69     C    0.79405   0.93800   0.49225   1.000
    C70     C    0.77220   0.78890   0.50720   1.000
    C71     C    0.76724   0.98780   0.43163   1.000
    C72     C    0.72780   0.87170   0.40470   1.000
    C73     C    0.79830   0.20860   0.41040   1.000
    C74     C    0.85323   0.38120   0.44975   1.000
    C75     C    0.87130   0.53370   0.43510   1.000
    C76     C    0.88198   0.33300   0.51038   1.000
    C77     C    0.92040   0.45010   0.53740   1.000
    C78     C    0.77381   0.26160   0.34475   1.000
    C79     C    0.78127   0.10920   0.64189   1.000
    C80     C    0.69221   0.94090   0.64045   1.000
    C81     C    0.69290   0.79490   0.61890   1.000
    C82     C    0.60237   0.99020   0.67103   1.000
    C83     C    0.54240   0.87550   0.67150   1.000
    C84     C    0.60048   0.20820   0.70098   1.000
    C85     C    0.68837   0.37680   0.70028   1.000
    C86     C    0.68540   0.52680   0.71990   1.000
    C87     C    0.78060   0.32790   0.67116   1.000
    C88     C    0.84140   0.44120   0.67130   1.000
    C89     C    0.50648   0.25900   0.73711   1.000
    C90     C    0.36258   0.74367   0.77818   1.000
    C91     C    0.60145   0.53546   0.89330   1.000
    C92     C    0.73970   0.58495   0.19092   1.000
    C93     C    0.73621   0.97657   0.17212   1.000
    C94     C    0.04211   0.58121   0.74461   1.000
    C95     C    0.01296   0.97617   0.75348   1.000
    C96     C    0.58446   0.27941   0.88950   1.000
    C97     C    0.50494   0.69438   0.87030   1.000
    C98     C    0.64670   0.60910   0.96929   1.000
    C99     C    0.70595   0.43800   0.00775   1.000
    C100    C    0.72780   0.28890   0.99280   1.000
    C101    C    0.73276   0.48780   0.06837   1.000
    C102    C    0.77220   0.37170   0.09530   1.000
    C103    C    0.70170   0.70860   0.08960   1.000
    C104    C    0.64677   0.88120   0.05025   1.000
    C105    C    0.62870   0.03370   0.06490   1.000
    C106    C    0.61802   0.83300   0.98962   1.000
    C107    C    0.57960   0.95010   0.96260   1.000
    C108    C    0.72619   0.76160   0.15525   1.000
    C109    C    0.71873   0.60920   0.85811   1.000
    C110    C    0.80779   0.44090   0.85955   1.000
    C111    C    0.80710   0.29490   0.88110   1.000
    C112    C    0.89763   0.49020   0.82897   1.000
    C113    C    0.95760   0.37550   0.82850   1.000
    C114    C    0.89952   0.70820   0.79902   1.000
    C115    C    0.81163   0.87680   0.79972   1.000
    C116    C    0.81460   0.02680   0.78010   1.000
    C117    C    0.71940   0.82790   0.82884   1.000
    C118    C    0.65860   0.94120   0.82870   1.000
    C119    C    0.99352   0.75900   0.76289   1.000
    O120    O    0.28312   0.63655   0.99973   1.000
    O121    O    0.71935   0.46290   0.03806   1.000
    O122    O    0.67632   0.52355   0.98852   1.000
    O123    O    0.71687   0.36345   0.00028   1.000
    O124    O    0.36764   0.27895   0.02055   1.000
    O125    O    0.40119   0.10845   0.02389   1.000
    O126    O    0.36760   0.14290   0.98007   1.000
    O127    O    0.37593   0.42772   0.06871   1.000
    O128    O    0.32368   0.47645   0.01148   1.000
    O129    O    0.63773   0.95745   0.05758   1.000
    O130    O    0.67423   0.79490   0.06993   1.000
    O131    O    0.63239   0.85710   0.01994   1.000
    O132    O    0.71723   0.59820   0.07899   1.000
    O133    O    0.75248   0.42975   0.08184   1.000
    O134    O    0.71394   0.73510   0.12243   1.000
    O135    O    0.40705   0.59256   0.10860   1.000
    O136    O    0.44681   0.38508   0.11820   1.000
    O137    O    0.33991   0.42767   0.12430   1.000
    O138    O    0.19255   0.63210   0.12968   1.000
    O139    O    0.23674   0.47495   0.14117   1.000
    O140    O    0.14729   0.53445   0.15574   1.000
    O141    O    0.28093   0.28145   0.15653   1.000
    O142    O    0.73120   0.86909   0.16369   1.000
    O143    O    0.73294   0.67328   0.17309   1.000
    O144    O    0.07239   0.56715   0.17127   1.000
    O145    O    0.10142   0.40080   0.18601   1.000
    O146    O    0.31100   0.11545   0.17123   1.000
    O147    O    0.23448   0.14765   0.18572   1.000
    O148    O    0.14443   0.20750   0.20063   1.000
    O149    O    0.18688   0.04820   0.21009   1.000
    O150    O    0.05348   0.26640   0.21905   1.000
    O151    O    0.58976   0.08756   0.23322   1.000
    O152    O    0.57519   0.39008   0.23765   1.000
    O153    O    0.99676   0.13241   0.24182   1.000
    O154    O    0.98218   0.32989   0.24625   1.000
    O155    O    0.51781   0.82989   0.25375   1.000
    O156    O    0.92481   0.89008   0.26235   1.000
    O157    O    0.50324   0.63241   0.25819   1.000
    O158    O    0.91023   0.58756   0.26679   1.000
    O159    O    0.44652   0.76640   0.28096   1.000
    O160    O    0.31311   0.54820   0.28991   1.000
    O161    O    0.35557   0.70750   0.29937   1.000
    O162    O    0.39857   0.90080   0.31400   1.000
    O163    O    0.26551   0.64765   0.31428   1.000
    O164    O    0.76705   0.17328   0.32692   1.000
    O165    O    0.76880   0.36909   0.33632   1.000
    O166    O    0.42761   0.06715   0.32874   1.000
    O167    O    0.18900   0.61545   0.32877   1.000
    O168    O    0.21907   0.78145   0.34348   1.000
    O169    O    0.35271   0.03445   0.34426   1.000
    O170    O    0.78605   0.23510   0.37758   1.000
    O171    O    0.26326   0.97495   0.35883   1.000
    O172    O    0.16009   0.92767   0.37570   1.000
    O173    O    0.30744   0.13210   0.37032   1.000
    O174    O    0.05319   0.88508   0.38180   1.000
    O175    O    0.09295   0.09256   0.39140   1.000
    O176    O    0.12407   0.92772   0.43130   1.000
    O177    O    0.74752   0.92975   0.41817   1.000
    O178    O    0.78277   0.09820   0.42102   1.000
    O179    O    0.82576   0.29490   0.43008   1.000
    O180    O    0.78064   0.96290   0.46194   1.000
    O181    O    0.86226   0.45745   0.44243   1.000
    O182    O    0.86760   0.35710   0.48007   1.000
    O183    O    0.09881   0.60845   0.47611   1.000
    O184    O    0.13236   0.77895   0.47946   1.000
    O185    O    0.17632   0.97645   0.48852   1.000
    O186    O    0.13239   0.64290   0.51994   1.000
    O187    O    0.78312   0.86345   0.49973   1.000
    O188    O    0.82367   0.02355   0.51148   1.000
    O189    O    0.21687   0.13655   0.50028   1.000
    O190    O    0.21935   0.03710   0.53806   1.000
    O191    O    0.86764   0.22105   0.52055   1.000
    O192    O    0.90119   0.39155   0.52389   1.000
    O193    O    0.87592   0.07228   0.56871   1.000
    O194    O    0.13773   0.54255   0.55758   1.000
    O195    O    0.17423   0.70510   0.56993   1.000
    O196    O    0.21723   0.90180   0.57899   1.000
    O197    O    0.25248   0.07025   0.58184   1.000
    O198    O    0.21394   0.76490   0.62243   1.000
    O199    O    0.90704   0.90743   0.60860   1.000
    O200    O    0.94680   0.11492   0.61820   1.000
    O201    O    0.83991   0.07233   0.62430   1.000
    O202    O    0.69255   0.86790   0.62968   1.000
    O203    O    0.73674   0.02505   0.64117   1.000
    O204    O    0.64729   0.96555   0.65574   1.000
    O205    O    0.78093   0.21855   0.65653   1.000
    O206    O    0.23120   0.63092   0.66369   1.000
    O207    O    0.23294   0.82672   0.67309   1.000
    O208    O    0.57238   0.93285   0.67127   1.000
    O209    O    0.60142   0.09920   0.68601   1.000
    O210    O    0.81100   0.38455   0.67123   1.000
    O211    O    0.73448   0.35235   0.68572   1.000
    O212    O    0.64443   0.29250   0.70063   1.000
    O213    O    0.68688   0.45180   0.71009   1.000
    O214    O    0.55348   0.23360   0.71905   1.000
    O215    O    0.08976   0.41244   0.73322   1.000
    O216    O    0.07519   0.10992   0.73765   1.000
    O217    O    0.49676   0.36758   0.74182   1.000
    O218    O    0.48218   0.17011   0.74625   1.000
    O219    O    0.01782   0.67011   0.75375   1.000
    O220    O    0.42481   0.60992   0.76235   1.000
    O221    O    0.00324   0.86758   0.75819   1.000
    O222    O    0.41023   0.91244   0.76679   1.000
    O223    O    0.94652   0.73360   0.78095   1.000
    O224    O    0.81311   0.95180   0.78991   1.000
    O225    O    0.85557   0.79250   0.79937   1.000
    O226    O    0.89857   0.59920   0.81400   1.000
    O227    O    0.76551   0.85235   0.81428   1.000
    O228    O    0.26705   0.32672   0.82692   1.000
    O229    O    0.26880   0.13091   0.83632   1.000
    O230    O    0.92761   0.43285   0.82874   1.000
    O231    O    0.68900   0.88455   0.82877   1.000
    O232    O    0.71906   0.71855   0.84348   1.000
    O233    O    0.85271   0.46555   0.84426   1.000
    O234    O    0.28605   0.26490   0.87758   1.000
    O235    O    0.76326   0.52505   0.85883   1.000
    O236    O    0.66009   0.57233   0.87571   1.000
    O237    O    0.80744   0.36790   0.87033   1.000
    O238    O    0.55319   0.61492   0.88180   1.000
    O239    O    0.59295   0.40743   0.89140   1.000
    O240    O    0.62407   0.57228   0.93130   1.000
    O241    O    0.24752   0.57025   0.91817   1.000
    O242    O    0.28277   0.40180   0.92102   1.000
    O243    O    0.32576   0.20510   0.93008   1.000
    O244    O    0.28064   0.53710   0.96194   1.000
    O245    O    0.36226   0.04255   0.94243   1.000
    O246    O    0.59881   0.89155   0.97611   1.000
    O247    O    0.63236   0.72105   0.97946   1.000
    O248    O    0.18856   0.07936   0.70637   1.000
    O249    O    0.30114   0.82936   0.73455   1.000
    O250    O    0.18681   0.38355   0.69697   1.000
    O251    O    0.29939   0.63355   0.72515   1.000
    O252    O    0.93376   0.78097   0.32424   1.000
    O253    O    0.19886   0.32936   0.76545   1.000
    O254    O    0.31144   0.57936   0.79363   1.000
    O255    O    0.20061   0.13355   0.77485   1.000
    O256    O    0.31318   0.88355   0.80303   1.000
    O257    O    0.56624   0.28098   0.17576   1.000
    O258    O    0.81144   0.92064   0.29363   1.000
    O259    O    0.69886   0.17064   0.26545   1.000
    O260    O    0.81318   0.61645   0.30303   1.000
    O261    O    0.70060   0.36645   0.27485   1.000
    O262    O    0.06624   0.21902   0.67576   1.000
    O263    O    0.80114   0.67064   0.23455   1.000
    O264    O    0.68856   0.42064   0.20637   1.000
    O265    O    0.79939   0.86645   0.22515   1.000
    O266    O    0.68682   0.11645   0.19697   1.000
    O267    O    0.43376   0.71903   0.82424   1.000
loop_
    _geom_bond_atom_site_label_1
    _geom_bond_atom_site_label_2
    _geom_bond_distance
    _geom_bond_site_symmetry_2
    _ccdc_geom_bond_type
    C40    O120      0.47492  1_554   S
    C39    O120      0.47492      .   S
    C99    O121      0.69411      .   S
    C101   O121      0.69411      .   S
    C99    O122      0.69472  1_554   S
    C98    O122      0.69472      .   S
    C99    O123      0.47492      .   S
    C100   O123      0.47492  1_556   S
    C46    O124      0.69594      .   S
    C38    O124      0.69594      .   S
    C46    O125      0.47528      .   S
    C47    O125      0.47528      .   S
    C46    O126      0.69390  1_554   S
    C44    O126      0.69390      .   S
    C38    O127      0.88224      .   S
    C31    O127      0.88224      .   S
    C38    O128      0.69472      .   S
    C39    O128      0.69472  1_556   S
    C104   O129      0.47502      .   S
    C105   O129      0.47502  1_545   S
    C104   O130      0.69404      .   S
    C103   O130      0.69404      .   S
    C104   O131      0.69390      .   S
    C106   O131      0.69390  1_556   S
    C101   O132      0.69662      .   S
    C103   O132      0.69662      .   S
    C101   O133      0.47494      .   S
    C102   O133      0.47494      .   S
    C103   O134      0.75057      .   S
    C108   O134      0.75057      .   S
    C31    O135      0.71945      .   S
    C36    O135      0.71945      .   S
    C31    O136      0.72632      .   S
    C37    O136      0.72632      .   S
    C31    O137      0.88041      .   S
    C49    O137      0.88041      .   S
    C51    O138      0.47520      .   S
    C50    O138      0.47520      .   S
    C50    O139      0.69803      .   S
    C49    O139      0.69803      .   S
    C50    O140      0.69580      .   S
    C52    O140      0.69580      .   S
    C49    O141      0.69442      .   S
    C57    O141      0.69442      .   S
    C108   O142      0.62768      .   S
    C93    O142      0.62768      .   S
    C108   O143      0.63359      .   S
    C92    O143      0.63359      .   S
    C52    O144      0.47476      .   S
    C53    O144      0.47476      .   S
    C52    O145      0.69722      .   S
    C54    O145      0.69722      .   S
    C57    O146      0.47478      .   S
    C58    O146      0.47478      .   S
    C57    O147      0.69702      .   S
    C55    O147      0.69702      .   S
    C55    O148      0.69674      .   S
    C54    O148      0.69674      .   S
    C55    O149      0.47539      .   S
    C56    O149      0.47539  1_565   S
    C54    O150      0.75872      .   S
    C59    O150      0.75872      .   S
    C30    O151      1.14607      .   S
    C4     O151      1.14607  1_565   S
    C30    O152      1.14493      .   S
    C5     O152      1.14493      .   S
    C59    O153      0.62770  1_455   S
    C35    O153      0.62770      .   S
    C59    O154      0.62511  1_455   S
    C34    O154      0.62511      .   S
    C4     O155      0.62511      .   S
    C29    O155      0.62511      .   S
    C35    O156      1.14493  1_545   S
    C0     O156      1.14493      .   S
    C5     O157      0.62770      .   S
    C29    O157      0.62770      .   S
    C34    O158      1.14607      .   S
    C0     O158      1.14607      .   S
    C29    O159      0.75872      .   S
    C24    O159      0.75872      .   S
    C26    O160      0.47539      .   S
    C25    O160      0.47539      .   S
    C24    O161      0.69674      .   S
    C25    O161      0.69674      .   S
    C24    O162      0.69722      .   S
    C22    O162      0.69722  1_545   S
    C25    O163      0.69702      .   S
    C27    O163      0.69702      .   S
    C62    O164      0.63359      .   S
    C78    O164      0.63359      .   S
    C63    O165      0.62768      .   S
    C78    O165      0.62768      .   S
    C23    O166      0.47476      .   S
    C22    O166      0.47476      .   S
    C28    O167      0.47478      .   S
    C27    O167      0.47478      .   S
    C27    O168      0.69442      .   S
    C19    O168      0.69442      .   S
    C22    O169      0.69580      .   S
    C20    O169      0.69580      .   S
    C78    O170      0.75057      .   S
    C73    O170      0.75057      .   S
    C19    O171      0.69803      .   S
    C20    O171      0.69803  1_545   S
    C19    O172      0.88041      .   S
    C1     O172      0.88041      .   S
    C20    O173      0.47520      .   S
    C21    O173      0.47520      .   S
    C7     O174      0.72632      .   S
    C1     O174      0.72632      .   S
    C6     O175      0.71945      .   S
    C1     O175      0.71945  1_565   S
    C1     O176      0.88224      .   S
    C8     O176      0.88224      .   S
    C72    O177      0.47494      .   S
    C71    O177      0.47494      .   S
    C73    O178      0.69662      .   S
    C71    O178      0.69662  1_565   S
    C73    O179      0.69404      .   S
    C74    O179      0.69404      .   S
    C71    O180      0.69411      .   S
    C69    O180      0.69411      .   S
    C75    O181      0.47502      .   S
    C74    O181      0.47502      .   S
    C74    O182      0.69390      .   S
    C76    O182      0.69390      .   S
    C17    O183      0.47528      .   S
    C16    O183      0.47528      .   S
    C8     O184      0.69594      .   S
    C16    O184      0.69594      .   S
    C8     O185      0.69472      .   S
    C9     O185      0.69472  1_545   S
    C16    O186      0.69390      .   S
    C14    O186      0.69390      .   S
    C69    O187      0.47492      .   S
    C70    O187      0.47492      .   S
    C69    O188      0.69472  1_565   S
    C68    O188      0.69472      .   S
    C10    O189      0.47492      .   S
    C9     O189      0.47492      .   S
    C9     O190      0.69411      .   S
    C11    O190      0.69411      .   S
    C76    O191      0.69594      .   S
    C68    O191      0.69594      .   S
    C76    O192      0.47528      .   S
    C77    O192      0.47528      .   S
    C68    O193      0.88224      .   S
    C61    O193      0.88224      .   S
    C14    O194      0.47502      .   S
    C15    O194      0.47502      .   S
    C14    O195      0.69404      .   S
    C13    O195      0.69404      .   S
    C11    O196      0.69662  1_545   S
    C13    O196      0.69662      .   S
    C11    O197      0.47494      .   S
    C12    O197      0.47494      .   S
    C13    O198      0.75057      .   S
    C18    O198      0.75057      .   S
    C61    O199      0.71945  1_545   S
    C66    O199      0.71945      .   S
    C61    O200      0.72632      .   S
    C67    O200      0.72632      .   S
    C61    O201      0.88041      .   S
    C79    O201      0.88041      .   S
    C81    O202      0.47520      .   S
    C80    O202      0.47520      .   S
    C80    O203      0.69803  1_565   S
    C79    O203      0.69803      .   S
    C80    O204      0.69580      .   S
    C82    O204      0.69580      .   S
    C79    O205      0.69442      .   S
    C87    O205      0.69442      .   S
    C18    O206      0.62768      .   S
    C3     O206      0.62768      .   S
    C18    O207      0.63359      .   S
    C2     O207      0.63359      .   S
    C82    O208      0.47476      .   S
    C83    O208      0.47476      .   S
    C82    O209      0.69722  1_565   S
    C84    O209      0.69722      .   S
    C87    O210      0.47478      .   S
    C88    O210      0.47478      .   S
    C87    O211      0.69702      .   S
    C85    O211      0.69702      .   S
    C85    O212      0.69674      .   S
    C84    O212      0.69674      .   S
    C85    O213      0.47539      .   S
    C86    O213      0.47539      .   S
    C84    O214      0.75872      .   S
    C89    O214      0.75872      .   S
    C60    O215      1.14607      .   S
    C94    O215      1.14607      .   S
    C60    O216      1.14493      .   S
    C95    O216      1.14493  1_565   S
    C89    O217      0.62770      .   S
    C65    O217      0.62770      .   S
    C89    O218      0.62511      .   S
    C64    O218      0.62511      .   S
    C94    O219      0.62511      .   S
    C119   O219      0.62511  1_655   S
    C65    O220      1.14493      .   S
    C90    O220      1.14493      .   S
    C95    O221      0.62770      .   S
    C119   O221      0.62770  1_655   S
    C64    O222      1.14607  1_545   S
    C90    O222      1.14607      .   S
    C119   O223      0.75872      .   S
    C114   O223      0.75872      .   S
    C116   O224      0.47539  1_545   S
    C115   O224      0.47539      .   S
    C114   O225      0.69674      .   S
    C115   O225      0.69674      .   S
    C114   O226      0.69722      .   S
    C112   O226      0.69722      .   S
    C115   O227      0.69702      .   S
    C117   O227      0.69702      .   S
    C32    O228      0.63359      .   S
    C48    O228      0.63359      .   S
    C33    O229      0.62768      .   S
    C48    O229      0.62768      .   S
    C113   O230      0.47476      .   S
    C112   O230      0.47476      .   S
    C118   O231      0.47478      .   S
    C117   O231      0.47478      .   S
    C117   O232      0.69442      .   S
    C109   O232      0.69442      .   S
    C112   O233      0.69580      .   S
    C110   O233      0.69580      .   S
    C48    O234      0.75057      .   S
    C43    O234      0.75057      .   S
    C109   O235      0.69803      .   S
    C110   O235      0.69803      .   S
    C109   O236      0.88041      .   S
    C91    O236      0.88041      .   S
    C110   O237      0.47520      .   S
    C111   O237      0.47520      .   S
    C97    O238      0.72632      .   S
    C91    O238      0.72632      .   S
    C96    O239      0.71945      .   S
    C91    O239      0.71945      .   S
    C91    O240      0.88224      .   S
    C98    O240      0.88224      .   S
    C42    O241      0.47494      .   S
    C41    O241      0.47494      .   S
    C43    O242      0.69662      .   S
    C41    O242      0.69662      .   S
    C43    O243      0.69404      .   S
    C44    O243      0.69404      .   S
    C41    O244      0.69411      .   S
    C39    O244      0.69411      .   S
    C45    O245      0.47502  1_565   S
    C44    O245      0.47502      .   S
    C107   O246      0.47528      .   S
    C106   O246      0.47528      .   S
    C98    O247      0.69594      .   S
    C106   O247      0.69594      .   S
    C2     O248      1.18137  1_565   S
    C60    O248      1.18137      .   S
    C2     O249      1.21192      .   S
    C90    O249      1.21192      .   S
    C3     O250      1.17561      .   S
    C60    O250      1.17561      .   S
    C3     O251      1.43292      .   S
    C90    O251      1.43292      .   S
    C7     O252      1.22106  1_455   S
    C0     O252      1.22106      .   S
    C32    O253      1.21192      .   S
    C60    O253      1.21192      .   S
    C32    O254      1.18137      .   S
    C90    O254      1.18137      .   S
    C33    O255      1.43292      .   S
    C60    O255      1.43292      .   S
    C33    O256      1.17561  1_545   S
    C90    O256      1.17561      .   S
    C37    O257      1.22106      .   S
    C30    O257      1.22106      .   S
    C62    O258      1.18137  1_545   S
    C0     O258      1.18137      .   S
    C62    O259      1.21192      .   S
    C30    O259      1.21192      .   S
    C63    O260      1.17561      .   S
    C0     O260      1.17561      .   S
    C63    O261      1.43292      .   S
    C30    O261      1.43292      .   S
    C67    O262      1.22106  1_655   S
    C60    O262      1.22106      .   S
    C92    O263      1.21192      .   S
    C0     O263      1.21192      .   S
    C92    O264      1.18137      .   S
    C30    O264      1.18137      .   S
    C93    O265      1.43292      .   S
    C0     O265      1.43292      .   S
    C93    O266      1.17561  1_565   S
    C30    O266      1.17561      .   S
    C97    O267      1.22106      .   S
    C90    O267      1.22106      .   S
