# CIF file generated by openbabel 2.4.90, see http://openbabel.sf.net
data_I
_chemical_name_common ''
_cell_length_a 71.5169
_cell_length_b 71.4927
_cell_length_c 71.6087
_cell_angle_alpha 89.8315
_cell_angle_beta 90.1248
_cell_angle_gamma 89.8689
_space_group_name_H-M_alt 'P 1'
_space_group_name_Hall 'P 1'
loop_
    _symmetry_equiv_pos_as_xyz
    x,y,z
loop_
    _atom_site_label
    _atom_site_type_symbol
    _atom_site_fract_x
    _atom_site_fract_y
    _atom_site_fract_z
    _atom_site_occupancy
    N0      N    0.69488   0.59004   0.90952   1.000
    N1      N    0.40761   0.91007   0.30587   1.000
    N2      N    0.41123   0.69499   0.09413   1.000
    N3      N    0.19290   0.90620   0.09019   1.000
    N4      N    0.90933   0.40944   0.30734   1.000
    N5      N    0.90915   0.19418   0.09168   1.000
    N6      N    0.69502   0.40824   0.09145   1.000
    N7      N    0.90859   0.90852   0.80457   1.000
    N8      N    0.90899   0.69271   0.59235   1.000
    N9      N    0.69319   0.90898   0.59089   1.000
    N10     N    0.59251   0.59240   0.80590   1.000
    N11     N    0.59250   0.80520   0.58917   1.000
    N12     N    0.80695   0.58948   0.59249   1.000
    N13     N    0.59182   0.09098   0.30685   1.000
    N14     N    0.58990   0.30559   0.09397   1.000
    N15     N    0.80627   0.09186   0.08932   1.000
    N16     N    0.09053   0.59197   0.30637   1.000
    N17     N    0.09090   0.80447   0.09240   1.000
    N18     N    0.30776   0.59226   0.09158   1.000
    N19     N    0.09051   0.09197   0.80562   1.000
    N20     N    0.09412   0.30617   0.58967   1.000
    N21     N    0.30539   0.08887   0.59334   1.000
    N22     N    0.40930   0.59287   0.19481   1.000
    N23     N    0.40956   0.80596   0.40872   1.000
    N24     N    0.19336   0.59255   0.40943   1.000
    N25     N    0.40770   0.09117   0.69538   1.000
    N26     N    0.40848   0.30848   0.90950   1.000
    N27     N    0.19397   0.09120   0.90909   1.000
    N28     N    0.90829   0.58952   0.69303   1.000
    N29     N    0.90842   0.80522   0.90664   1.000
    N30     N    0.90947   0.09326   0.19278   1.000
    N31     N    0.90778   0.30646   0.40918   1.000
    N32     N    0.69359   0.09112   0.40801   1.000
    N33     N    0.59181   0.40894   0.19548   1.000
    N34     N    0.58913   0.19316   0.40818   1.000
    N35     N    0.80555   0.40743   0.40930   1.000
    N36     N    0.59052   0.90865   0.69462   1.000
    N37     N    0.59081   0.69355   0.90737   1.000
    N38     N    0.80624   0.90844   0.90765   1.000
    N39     N    0.09329   0.40951   0.69389   1.000
    N40     N    0.09134   0.19345   0.90656   1.000
    N41     N    0.30653   0.40816   0.91139   1.000
    N42     N    0.08815   0.90571   0.19344   1.000
    N43     N    0.09291   0.69405   0.41072   1.000
    N44     N    0.30588   0.90932   0.40659   1.000
    N45     N    0.08921   0.09185   0.19212   1.000
    N46     N    0.90710   0.90960   0.19331   1.000
    N47     N    0.09064   0.19305   0.09074   1.000
    N48     N    0.90813   0.80508   0.09110   1.000
    N49     N    0.19250   0.09028   0.09148   1.000
    N50     N    0.80557   0.90970   0.09034   1.000
    N51     N    0.40795   0.41023   0.19415   1.000
    N52     N    0.90721   0.69491   0.40937   1.000
    N53     N    0.59157   0.59201   0.19378   1.000
    N54     N    0.19511   0.40862   0.40770   1.000
    N55     N    0.40832   0.90857   0.69475   1.000
    N56     N    0.40876   0.19314   0.40837   1.000
    N57     N    0.69323   0.40904   0.90899   1.000
    N58     N    0.19238   0.90830   0.90928   1.000
    N59     N    0.40957   0.69455   0.90865   1.000
    N60     N    0.90943   0.40857   0.69324   1.000
    N61     N    0.90862   0.19445   0.90669   1.000
    N62     N    0.69318   0.91082   0.40865   1.000
    N63     N    0.80583   0.59123   0.40806   1.000
    N64     N    0.59170   0.80710   0.40974   1.000
    N65     N    0.59001   0.09168   0.69519   1.000
    N66     N    0.80648   0.09239   0.90693   1.000
    N67     N    0.58964   0.30581   0.90974   1.000
    N68     N    0.09219   0.59039   0.69351   1.000
    N69     N    0.30798   0.59143   0.90868   1.000
    N70     N    0.09173   0.80432   0.90922   1.000
    N71     N    0.30481   0.09028   0.40636   1.000
    N72     N    0.09154   0.30489   0.40883   1.000
    N73     N    0.59084   0.40735   0.80597   1.000
    N74     N    0.80567   0.40823   0.59113   1.000
    N75     N    0.59032   0.19261   0.59161   1.000
    N76     N    0.59249   0.91081   0.30744   1.000
    N77     N    0.59209   0.69503   0.09246   1.000
    N78     N    0.09223   0.40889   0.30645   1.000
    N79     N    0.30616   0.40949   0.09229   1.000
    N80     N    0.09235   0.90805   0.80574   1.000
    N81     N    0.30688   0.90760   0.59019   1.000
    N82     N    0.09171   0.69309   0.59216   1.000
    N83     N    0.40773   0.58941   0.80590   1.000
    N84     N    0.19491   0.59273   0.59013   1.000
    N85     N    0.41018   0.80608   0.59289   1.000
    N86     N    0.40801   0.09210   0.30487   1.000
    N87     N    0.40776   0.30811   0.09131   1.000
    N88     N    0.90837   0.59002   0.30735   1.000
    N89     N    0.69559   0.59065   0.09160   1.000
    N90     N    0.91048   0.09245   0.80355   1.000
    N91     N    0.69318   0.09278   0.59131   1.000
    N92     N    0.90811   0.30674   0.58991   1.000
    N93     N    0.40992   0.40859   0.80725   1.000
    N94     N    0.40767   0.19323   0.59154   1.000
    N95     N    0.19556   0.40882   0.59235   1.000
    Zr96    Zr   0.35798   0.82696   0.17645   1.000
    O97     O    0.37020   0.85025   0.21109   1.000
    O98     O    0.37144   0.79144   0.15360   1.000
    Zr99    Zr   0.32899   0.84482   0.16678   1.000
    O100    O    0.34968   0.86469   0.20600   1.000
    O101    O    0.29126   0.86326   0.14717   1.000
    Zr102   Zr   0.32576   0.82295   0.14255   1.000
    O103    O    0.29006   0.84615   0.12944   1.000
    O104    O    0.34972   0.78877   0.13075   1.000
    Zr105   Zr   0.85823   0.32495   0.17841   1.000
    O106    O    0.87097   0.34861   0.21293   1.000
    O107    O    0.87103   0.28989   0.15428   1.000
    Zr108   Zr   0.82573   0.35889   0.17702   1.000
    O109    O    0.84904   0.37145   0.21197   1.000
    O110    O    0.79074   0.37106   0.15311   1.000
    Zr111   Zr   0.83104   0.33332   0.15696   1.000
    O112    O    0.85193   0.29402   0.13744   1.000
    O113    O    0.79353   0.35238   0.13720   1.000
    Zr114   Zr   0.85603   0.82366   0.67554   1.000
    O115    O    0.86918   0.84746   0.71002   1.000
    O116    O    0.86928   0.78848   0.65236   1.000
    Zr117   Zr   0.82858   0.84394   0.66562   1.000
    O118    O    0.84982   0.86357   0.70472   1.000
    O119    O    0.79118   0.86353   0.64644   1.000
    Zr120   Zr   0.82386   0.82270   0.64116   1.000
    O121    O    0.78886   0.84678   0.62860   1.000
    O122    O    0.84758   0.78787   0.62922   1.000
    Zr123   Zr   0.64460   0.67626   0.67372   1.000
    O124    O    0.63157   0.71060   0.64990   1.000
    O125    O    0.63155   0.65300   0.70928   1.000
    Zr126   Zr   0.67263   0.65550   0.66718   1.000
    O127    O    0.70989   0.63579   0.64863   1.000
    O128    O    0.65134   0.63682   0.70668   1.000
    Zr129   Zr   0.67684   0.67296   0.63967   1.000
    O130    O    0.71175   0.64965   0.62828   1.000
    O131    O    0.65328   0.70834   0.62695   1.000
    Zr132   Zr   0.64428   0.17437   0.17806   1.000
    O133    O    0.63056   0.20955   0.15460   1.000
    O134    O    0.63127   0.15106   0.21261   1.000
    Zr135   Zr   0.67714   0.14096   0.17714   1.000
    O136    O    0.71167   0.12884   0.15261   1.000
    O137    O    0.65344   0.12857   0.21199   1.000
    Zr138   Zr   0.67134   0.16626   0.15666   1.000
    O139    O    0.70849   0.14736   0.13640   1.000
    O140    O    0.64951   0.20563   0.13777   1.000
    Zr141   Zr   0.14386   0.67482   0.17634   1.000
    O142    O    0.13043   0.65158   0.21116   1.000
    O143    O    0.13070   0.70961   0.15290   1.000
    Zr144   Zr   0.17570   0.64005   0.17645   1.000
    O145    O    0.21112   0.62823   0.15280   1.000
    O146    O    0.15191   0.62818   0.21120   1.000
    Zr147   Zr   0.17175   0.66579   0.15642   1.000
    O148    O    0.20937   0.64706   0.13696   1.000
    O149    O    0.15042   0.70505   0.13713   1.000
    Zr150   Zr   0.14306   0.17697   0.67506   1.000
    O151    O    0.13096   0.21148   0.65112   1.000
    O152    O    0.12977   0.15337   0.71017   1.000
    Zr153   Zr   0.17420   0.14165   0.67783   1.000
    O154    O    0.20940   0.12837   0.65426   1.000
    O155    O    0.15077   0.12960   0.71203   1.000
    Zr156   Zr   0.17079   0.16602   0.65608   1.000
    O157    O    0.20804   0.14613   0.63717   1.000
    O158    O    0.15059   0.20547   0.63587   1.000
    Zr159   Zr   0.35659   0.67637   0.32507   1.000
    O160    O    0.36972   0.65301   0.29016   1.000
    O161    O    0.36991   0.71108   0.34849   1.000
    Zr162   Zr   0.32838   0.65659   0.33360   1.000
    O163    O    0.29096   0.63737   0.35286   1.000
    O164    O    0.34980   0.63733   0.29442   1.000
    Zr165   Zr   0.32405   0.67694   0.35892   1.000
    O166    O    0.34796   0.71143   0.37128   1.000
    O167    O    0.28895   0.65344   0.37138   1.000
    Zr168   Zr   0.35656   0.17728   0.82531   1.000
    O169    O    0.36934   0.15331   0.79049   1.000
    O170    O    0.36956   0.21252   0.84870   1.000
    Zr171   Zr   0.32867   0.15754   0.83409   1.000
    O172    O    0.34973   0.13757   0.79488   1.000
    O173    O    0.29147   0.13767   0.85319   1.000
    Zr174   Zr   0.32421   0.17869   0.85896   1.000
    O175    O    0.28929   0.15431   0.87141   1.000
    O176    O    0.34776   0.21347   0.87139   1.000
    Zr177   Zr   0.85541   0.67475   0.82140   1.000
    O178    O    0.86873   0.70976   0.84512   1.000
    O179    O    0.86859   0.65092   0.78703   1.000
    Zr180   Zr   0.82424   0.63983   0.82396   1.000
    O181    O    0.84757   0.62740   0.78877   1.000
    O182    O    0.78968   0.62750   0.84795   1.000
    Zr183   Zr   0.82902   0.66595   0.84340   1.000
    O184    O    0.85017   0.70540   0.86231   1.000
    O185    O    0.79208   0.64663   0.86338   1.000
    Zr186   Zr   0.85718   0.17662   0.32522   1.000
    O187    O    0.87043   0.15339   0.28970   1.000
    O188    O    0.86967   0.21134   0.34874   1.000
    Zr189   Zr   0.83016   0.15495   0.33260   1.000
    O190    O    0.85154   0.13640   0.29305   1.000
    O191    O    0.79260   0.13552   0.35153   1.000
    Zr192   Zr   0.82385   0.17431   0.35828   1.000
    O193    O    0.78904   0.15093   0.37043   1.000
    O194    O    0.84721   0.20978   0.37101   1.000
    Zr195   Zr   0.64454   0.32131   0.32293   1.000
    O196    O    0.63038   0.28708   0.34679   1.000
    O197    O    0.63116   0.34585   0.28895   1.000
    Zr198   Zr   0.67066   0.34245   0.33357   1.000
    O199    O    0.64959   0.36254   0.29459   1.000
    O200    O    0.70790   0.36198   0.35290   1.000
    Zr201   Zr   0.67435   0.32165   0.35898   1.000
    O202    O    0.65049   0.28727   0.37107   1.000
    O203    O    0.70957   0.34555   0.37145   1.000
    Zr204   Zr   0.64744   0.82044   0.82029   1.000
    O205    O    0.63291   0.84516   0.78682   1.000
    O206    O    0.63290   0.78659   0.84466   1.000
    Zr207   Zr   0.67119   0.84344   0.83257   1.000
    O208    O    0.70831   0.86314   0.85192   1.000
    O209    O    0.64965   0.86319   0.79369   1.000
    Zr210   Zr   0.67469   0.82314   0.85830   1.000
    O211    O    0.70992   0.84698   0.87060   1.000
    O212    O    0.65126   0.78841   0.87028   1.000
    Zr213   Zr   0.14337   0.32631   0.82474   1.000
    O214    O    0.13108   0.34955   0.78967   1.000
    O215    O    0.13020   0.29062   0.84753   1.000
    Zr216   Zr   0.17011   0.35155   0.83583   1.000
    O217    O    0.15049   0.36766   0.79538   1.000
    O218    O    0.20847   0.36697   0.85475   1.000
    Zr219   Zr   0.17597   0.32625   0.84513   1.000
    O220    O    0.21091   0.34829   0.86519   1.000
    O221    O    0.15204   0.29002   0.86371   1.000
    Zr222   Zr   0.14186   0.82310   0.32632   1.000
    O223    O    0.12991   0.78848   0.34986   1.000
    O224    O    0.12823   0.84608   0.29062   1.000
    Zr225   Zr   0.16948   0.84424   0.33257   1.000
    O226    O    0.20697   0.86398   0.35107   1.000
    O227    O    0.14749   0.86271   0.29318   1.000
    Zr228   Zr   0.17658   0.82459   0.35798   1.000
    O229    O    0.15331   0.78950   0.37119   1.000
    O230    O    0.21111   0.84839   0.36982   1.000
    Zr231   Zr   0.84343   0.83061   0.33258   1.000
    O232    O    0.86275   0.85172   0.29328   1.000
    O233    O    0.86260   0.79309   0.35209   1.000
    Zr234   Zr   0.32576   0.35797   0.32496   1.000
    O235    O    0.29074   0.37053   0.34812   1.000
    O236    O    0.34858   0.37093   0.28971   1.000
    Zr237   Zr   0.35820   0.32388   0.32234   1.000
    O238    O    0.37083   0.28886   0.34635   1.000
    O239    O    0.37040   0.34792   0.28797   1.000
    Zr240   Zr   0.33413   0.32910   0.34394   1.000
    O241    O    0.29497   0.35019   0.36332   1.000
    O242    O    0.35322   0.29150   0.36332   1.000
    Zr243   Zr   0.32215   0.85570   0.82365   1.000
    O244    O    0.34621   0.86908   0.78919   1.000
    O245    O    0.28733   0.86898   0.84745   1.000
    Zr246   Zr   0.34296   0.82901   0.83349   1.000
    O247    O    0.36294   0.79196   0.85266   1.000
    O248    O    0.36271   0.85033   0.79433   1.000
    Zr249   Zr   0.32168   0.82459   0.85831   1.000
    O250    O    0.34619   0.78974   0.87082   1.000
    O251    O    0.28701   0.84799   0.87081   1.000
    Zr252   Zr   0.82435   0.35915   0.82355   1.000
    O253    O    0.84809   0.37149   0.78866   1.000
    O254    O    0.78919   0.37165   0.84731   1.000
    Zr255   Zr   0.84391   0.33076   0.83203   1.000
    O256    O    0.86330   0.29305   0.85098   1.000
    O257    O    0.86367   0.35151   0.79283   1.000
    Zr258   Zr   0.82293   0.32620   0.85700   1.000
    O259    O    0.78823   0.34944   0.86985   1.000
    O260    O    0.84680   0.29085   0.86928   1.000
    Zr261   Zr   0.82402   0.85910   0.32435   1.000
    O262    O    0.78885   0.87201   0.34774   1.000
    O263    O    0.84725   0.87173   0.28927   1.000
    Zr264   Zr   0.82190   0.82579   0.35714   1.000
    O265    O    0.78742   0.84955   0.36984   1.000
    O266    O    0.84571   0.79069   0.37010   1.000
    Zr267   Zr   0.67318   0.64301   0.32485   1.000
    O268    O    0.70875   0.62999   0.34804   1.000
    O269    O    0.65039   0.63041   0.28966   1.000
    Zr270   Zr   0.64129   0.67731   0.32397   1.000
    O271    O    0.62907   0.71205   0.34794   1.000
    O272    O    0.62893   0.65356   0.28907   1.000
    Zr273   Zr   0.66606   0.67121   0.34500   1.000
    O274    O    0.64723   0.70869   0.36451   1.000
    O275    O    0.70550   0.64973   0.36403   1.000
    Zr276   Zr   0.67632   0.14525   0.82275   1.000
    O277    O    0.65208   0.13166   0.78871   1.000
    O278    O    0.71119   0.13212   0.84630   1.000
    Zr279   Zr   0.65382   0.17658   0.82618   1.000
    O280    O    0.63447   0.15245   0.79097   1.000
    O281    O    0.63439   0.21085   0.84931   1.000
    Zr282   Zr   0.66790   0.17168   0.84958   1.000
    O283    O    0.70726   0.15149   0.86513   1.000
    O284    O    0.64808   0.20945   0.86592   1.000
    Zr285   Zr   0.17684   0.64261   0.82340   1.000
    O286    O    0.15326   0.62960   0.78856   1.000
    O287    O    0.21205   0.62976   0.84709   1.000
    Zr288   Zr   0.15709   0.67061   0.83205   1.000
    O289    O    0.13753   0.64932   0.79284   1.000
    O290    O    0.13750   0.70759   0.85168   1.000
    Zr291   Zr   0.17814   0.67469   0.85720   1.000
    O292    O    0.15404   0.70947   0.87011   1.000
    O293    O    0.21292   0.65139   0.86987   1.000
    Zr294   Zr   0.17496   0.14409   0.31995   1.000
    O295    O    0.15084   0.13098   0.28590   1.000
    O296    O    0.20972   0.13049   0.34405   1.000
    Zr297   Zr   0.14969   0.17180   0.32826   1.000
    O298    O    0.13207   0.20669   0.35098   1.000
    O299    O    0.13143   0.14901   0.29175   1.000
    Zr300   Zr   0.16792   0.16798   0.34935   1.000
    O301    O    0.14836   0.20649   0.36547   1.000
    O302    O    0.20667   0.14826   0.36444   1.000
    Zr303   Zr   0.67451   0.35608   0.67508   1.000
    O304    O    0.65107   0.36886   0.71011   1.000
    O305    O    0.70967   0.36917   0.65163   1.000
    Zr306   Zr   0.65540   0.32736   0.66682   1.000
    O307    O    0.63597   0.28996   0.64774   1.000
    O308    O    0.63583   0.34858   0.70602   1.000
    Zr309   Zr   0.67628   0.32274   0.64200   1.000
    O310    O    0.65241   0.28775   0.62957   1.000
    O311    O    0.71084   0.34667   0.62937   1.000
    Zr312   Zr   0.67665   0.85802   0.17712   1.000
    O313    O    0.71113   0.87096   0.15290   1.000
    O314    O    0.65327   0.87122   0.21214   1.000
    Zr315   Zr   0.64236   0.82605   0.17828   1.000
    O316    O    0.63016   0.84968   0.21292   1.000
    O317    O    0.62981   0.79097   0.15429   1.000
    Zr318   Zr   0.66686   0.83080   0.15680   1.000
    O319    O    0.70598   0.85183   0.13672   1.000
    O320    O    0.64771   0.79337   0.13739   1.000
    Zr321   Zr   0.17489   0.35683   0.17466   1.000
    O322    O    0.15189   0.36979   0.21010   1.000
    O323    O    0.21010   0.36989   0.15163   1.000
    Zr324   Zr   0.14142   0.32390   0.17613   1.000
    O325    O    0.12875   0.28887   0.15227   1.000
    O326    O    0.12936   0.34757   0.21106   1.000
    Zr327   Zr   0.16615   0.32859   0.15509   1.000
    O328    O    0.14684   0.29115   0.13570   1.000
    O329    O    0.20566   0.34999   0.13604   1.000
    Zr330   Zr   0.17648   0.85716   0.67396   1.000
    O331    O    0.15309   0.86988   0.70935   1.000
    O332    O    0.21149   0.86963   0.65062   1.000
    Zr333   Zr   0.15645   0.82869   0.66710   1.000
    O334    O    0.13724   0.84989   0.70630   1.000
    O335    O    0.13698   0.79121   0.64816   1.000
    Zr336   Zr   0.17681   0.82324   0.64178   1.000
    O337    O    0.15303   0.78838   0.62957   1.000
    O338    O    0.21168   0.84676   0.62895   1.000
    Zr339   Zr   0.32106   0.64553   0.67707   1.000
    O340    O    0.28741   0.63245   0.65268   1.000
    O341    O    0.34523   0.63118   0.71156   1.000
    Zr342   Zr   0.34457   0.67622   0.67542   1.000
    O343    O    0.36351   0.65145   0.71069   1.000
    O344    O    0.36448   0.71061   0.65280   1.000
    Zr345   Zr   0.33185   0.67178   0.65110   1.000
    O346    O    0.29296   0.65173   0.63430   1.000
    O347    O    0.35179   0.70961   0.63531   1.000
    Zr348   Zr   0.32472   0.14302   0.17326   1.000
    O349    O    0.28913   0.12991   0.15052   1.000
    O350    O    0.34802   0.13038   0.20852   1.000
    Zr351   Zr   0.34324   0.17212   0.16512   1.000
    O352    O    0.36290   0.15089   0.20449   1.000
    O353    O    0.36257   0.20978   0.14633   1.000
    Zr354   Zr   0.32180   0.17702   0.14075   1.000
    O355    O    0.28720   0.15284   0.12863   1.000
    O356    O    0.34575   0.21218   0.12846   1.000
    Zr357   Zr   0.82003   0.64757   0.18108   1.000
    O358    O    0.84469   0.63284   0.21481   1.000
    O359    O    0.78694   0.63300   0.15599   1.000
    Zr360   Zr   0.84463   0.67660   0.17530   1.000
    O361    O    0.86371   0.65191   0.21126   1.000
    O362    O    0.86397   0.71037   0.15222   1.000
    Zr363   Zr   0.83174   0.66930   0.15177   1.000
    O364    O    0.79317   0.64911   0.13510   1.000
    O365    O    0.85124   0.70741   0.13494   1.000
    Zr366   Zr   0.82424   0.14396   0.67460   1.000
    O367    O    0.84839   0.13112   0.70906   1.000
    O368    O    0.78898   0.13135   0.65145   1.000
    Zr369   Zr   0.84706   0.17481   0.67099   1.000
    O370    O    0.86615   0.15155   0.70623   1.000
    O371    O    0.86520   0.21002   0.64819   1.000
    Zr372   Zr   0.82848   0.17322   0.64997   1.000
    O373    O    0.79000   0.15271   0.63466   1.000
    O374    O    0.84848   0.21095   0.63427   1.000
    Zr375   Zr   0.35909   0.32402   0.67617   1.000
    O376    O    0.37180   0.34748   0.71140   1.000
    O377    O    0.37121   0.28899   0.65256   1.000
    Zr378   Zr   0.32592   0.35702   0.67839   1.000
    O379    O    0.34943   0.36972   0.71289   1.000
    O380    O    0.29094   0.36988   0.65441   1.000
    Zr381   Zr   0.33053   0.33238   0.65700   1.000
    O382    O    0.35113   0.29312   0.63722   1.000
    O383    O    0.29320   0.35183   0.63761   1.000
    Zr384   Zr   0.08930   0.99844   0.09051   1.000
    O385    O    0.11378   0.02367   0.08613   1.000
    O386    O    0.11383   0.97308   0.08584   1.000
    O387    O    0.08441   0.97300   0.11482   1.000
    O388    O    0.08470   0.02413   0.11442   1.000
    O389    O    0.11972   0.02362   0.09219   1.000
    O390    O    0.11977   0.97305   0.09190   1.000
    O391    O    0.09064   0.02409   0.12048   1.000
    O392    O    0.09036   0.97298   0.12087   1.000
    Zr393   Zr   0.90765   0.00064   0.08945   1.000
    O394    O    0.88380   0.02571   0.08483   1.000
    O395    O    0.88357   0.97559   0.08512   1.000
    O396    O    0.91275   0.02603   0.11395   1.000
    O397    O    0.91210   0.97553   0.11413   1.000
    O398    O    0.87771   0.02580   0.09071   1.000
    O399    O    0.87749   0.97567   0.09099   1.000
    O400    O    0.90668   0.02611   0.11983   1.000
    O401    O    0.90602   0.97561   0.12001   1.000
    Zr402   Zr   0.99909   0.09169   0.08948   1.000
    O403    O    0.97434   0.08752   0.11393   1.000
    O404    O    0.97431   0.11594   0.08544   1.000
    O405    O    0.02385   0.08709   0.11377   1.000
    O406    O    0.02427   0.11558   0.08522   1.000
    O407    O    0.97440   0.09352   0.11989   1.000
    O408    O    0.97436   0.12195   0.09139   1.000
    O409    O    0.02392   0.09309   0.11973   1.000
    O410    O    0.02434   0.12160   0.09117   1.000
    Zr411   Zr   0.99779   0.90765   0.09064   1.000
    O412    O    0.02342   0.88316   0.08651   1.000
    O413    O    0.02274   0.91171   0.11492   1.000
    O414    O    0.97291   0.91278   0.11481   1.000
    O415    O    0.97316   0.88340   0.08613   1.000
    O416    O    0.02326   0.87721   0.09256   1.000
    O417    O    0.02261   0.90576   0.12098   1.000
    O418    O    0.97278   0.90684   0.12087   1.000
    O419    O    0.97300   0.87745   0.09219   1.000
    Zr420   Zr   0.09101   0.99790   0.90861   1.000
    O421    O    0.11481   0.97329   0.91342   1.000
    O422    O    0.08628   0.02379   0.88416   1.000
    O423    O    0.11535   0.02358   0.91324   1.000
    O424    O    0.08673   0.97323   0.88421   1.000
    O425    O    0.12090   0.97312   0.90754   1.000
    O426    O    0.12143   0.02342   0.90736   1.000
    O427    O    0.09236   0.02363   0.87828   1.000
    O428    O    0.09281   0.97307   0.87833   1.000
    Zr429   Zr   0.91024   0.00012   0.90609   1.000
    O430    O    0.88561   0.97492   0.91111   1.000
    O431    O    0.88568   0.02548   0.91089   1.000
    O432    O    0.91491   0.02546   0.88187   1.000
    O433    O    0.91438   0.97489   0.88214   1.000
    O434    O    0.87965   0.97496   0.90508   1.000
    O435    O    0.87972   0.02550   0.90486   1.000
    O436    O    0.90895   0.02548   0.87583   1.000
    O437    O    0.90842   0.97491   0.87610   1.000
    Zr438   Zr   0.09170   0.08946   0.99906   1.000
    O439    O    0.11544   0.08511   0.02444   1.000
    O440    O    0.11584   0.08532   0.97427   1.000
    O441    O    0.08702   0.11413   0.97360   1.000
    O442    O    0.08677   0.11401   0.02421   1.000
    O443    O    0.12152   0.09101   0.02450   1.000
    O444    O    0.12191   0.09123   0.97433   1.000
    O445    O    0.09309   0.12004   0.97366   1.000
    O446    O    0.09284   0.11991   0.02427   1.000
    Zr447   Zr   0.08939   0.90598   0.00094   1.000
    O448    O    0.11384   0.91062   0.02550   1.000
    O449    O    0.08515   0.88199   0.02604   1.000
    O450    O    0.08540   0.88193   0.97568   1.000
    O451    O    0.11368   0.91120   0.97572   1.000
    O452    O    0.09143   0.87595   0.97574   1.000
    O453    O    0.11988   0.90465   0.02556   1.000
    O454    O    0.09118   0.87601   0.02612   1.000
    O455    O    0.11972   0.90523   0.97578   1.000
    Zr456   Zr   0.90939   0.09185   0.99689   1.000
    O457    O    0.88502   0.08724   0.02234   1.000
    O458    O    0.91383   0.11611   0.97214   1.000
    O459    O    0.88509   0.08739   0.97217   1.000
    O460    O    0.91389   0.11606   0.02296   1.000
    O461    O    0.87901   0.09323   0.02221   1.000
    O462    O    0.87906   0.09337   0.97204   1.000
    O463    O    0.90781   0.12209   0.97200   1.000
    O464    O    0.90787   0.12205   0.02282   1.000
    Zr465   Zr   0.90788   0.90910   0.99816   1.000
    O466    O    0.88398   0.91348   0.97323   1.000
    O467    O    0.88378   0.91385   0.02348   1.000
    O468    O    0.91266   0.88440   0.97306   1.000
    O469    O    0.91253   0.88441   0.02374   1.000
    O470    O    0.87786   0.90761   0.97318   1.000
    O471    O    0.87767   0.90798   0.02342   1.000
    O472    O    0.90655   0.87853   0.97303   1.000
    O473    O    0.90642   0.87854   0.02370   1.000
    Zr474   Zr   0.00134   0.09106   0.90683   1.000
    O475    O    0.97583   0.11555   0.91139   1.000
    O476    O    0.02583   0.08663   0.88299   1.000
    O477    O    0.02607   0.11524   0.91137   1.000
    O478    O    0.97627   0.08687   0.88239   1.000
    O479    O    0.97596   0.12153   0.90537   1.000
    O480    O    0.02597   0.09260   0.87696   1.000
    O481    O    0.02622   0.12122   0.90535   1.000
    O482    O    0.97640   0.09285   0.87636   1.000
    Zr483   Zr   0.99973   0.90695   0.90853   1.000
    O484    O    0.97469   0.91199   0.88390   1.000
    O485    O    0.97458   0.88293   0.91259   1.000
    O486    O    0.02520   0.91179   0.88424   1.000
    O487    O    0.02497   0.88267   0.91333   1.000
    O488    O    0.97470   0.90598   0.87794   1.000
    O489    O    0.97458   0.87692   0.90663   1.000
    O490    O    0.02520   0.90579   0.87827   1.000
    O491    O    0.02497   0.87666   0.90736   1.000
    Zr492   Zr   0.00149   0.40893   0.40936   1.000
    O493    O    0.97616   0.41368   0.38534   1.000
    O494    O    0.97579   0.38467   0.41392   1.000
    O495    O    0.02632   0.38426   0.41380   1.000
    O496    O    0.02645   0.41348   0.38499   1.000
    O497    O    0.97613   0.40774   0.37931   1.000
    O498    O    0.97576   0.37873   0.40789   1.000
    O499    O    0.02629   0.37832   0.40778   1.000
    O500    O    0.02642   0.40754   0.37897   1.000
    Zr501   Zr   0.99971   0.59235   0.41069   1.000
    O502    O    0.02532   0.61636   0.41530   1.000
    O503    O    0.02475   0.58768   0.38599   1.000
    O504    O    0.97465   0.58711   0.38627   1.000
    O505    O    0.97432   0.61660   0.41492   1.000
    O506    O    0.02526   0.62238   0.40931   1.000
    O507    O    0.02467   0.59370   0.38000   1.000
    O508    O    0.97459   0.59312   0.38027   1.000
    O509    O    0.97427   0.62261   0.40892   1.000
    Zr510   Zr   0.90876   0.50025   0.40948   1.000
    O511    O    0.88437   0.52526   0.41374   1.000
    O512    O    0.91347   0.47521   0.38543   1.000
    O513    O    0.91326   0.52492   0.38544   1.000
    O514    O    0.88425   0.47473   0.41405   1.000
    O515    O    0.87847   0.52535   0.40764   1.000
    O516    O    0.90757   0.47526   0.37933   1.000
    O517    O    0.90738   0.52499   0.37933   1.000
    O518    O    0.87834   0.47482   0.40796   1.000
    Zr519   Zr   0.09117   0.50114   0.40847   1.000
    O520    O    0.11583   0.47561   0.41282   1.000
    O521    O    0.11534   0.52615   0.41339   1.000
    O522    O    0.08646   0.52610   0.38439   1.000
    O523    O    0.08685   0.47575   0.38437   1.000
    O524    O    0.12176   0.47576   0.40678   1.000
    O525    O    0.12128   0.52629   0.40736   1.000
    O526    O    0.09239   0.52625   0.37836   1.000
    O527    O    0.09277   0.47590   0.37833   1.000
    Zr528   Zr   0.00142   0.40833   0.58958   1.000
    O529    O    0.02690   0.38429   0.58503   1.000
    O530    O    0.02663   0.41325   0.61435   1.000
    O531    O    0.97609   0.41300   0.61413   1.000
    O532    O    0.97581   0.38437   0.58507   1.000
    O533    O    0.02694   0.37822   0.59096   1.000
    O534    O    0.02666   0.40717   0.62027   1.000
    O535    O    0.97614   0.40690   0.62004   1.000
    O536    O    0.97587   0.37828   0.59099   1.000
    Zr537   Zr   0.00065   0.58992   0.59115   1.000
    O538    O    0.97546   0.61427   0.58683   1.000
    O539    O    0.02570   0.61437   0.58681   1.000
    O540    O    0.02583   0.58544   0.61531   1.000
    O541    O    0.97529   0.58523   0.61518   1.000
    O542    O    0.97545   0.62020   0.59288   1.000
    O543    O    0.02567   0.62030   0.59285   1.000
    O544    O    0.02580   0.59138   0.62135   1.000
    O545    O    0.97528   0.59117   0.62122   1.000
    Zr546   Zr   0.90853   0.40850   0.49940   1.000
    O547    O    0.91291   0.38447   0.47454   1.000
    O548    O    0.91304   0.38450   0.52427   1.000
    O549    O    0.88409   0.41286   0.47462   1.000
    O550    O    0.88415   0.41300   0.52464   1.000
    O551    O    0.87824   0.40694   0.52466   1.000
    O552    O    0.90700   0.37840   0.47452   1.000
    O553    O    0.90715   0.37843   0.52428   1.000
    O554    O    0.87817   0.40681   0.47461   1.000
    Zr555   Zr   0.09381   0.40952   0.49922   1.000
    O556    O    0.08930   0.38506   0.52412   1.000
    O557    O    0.11770   0.41386   0.47403   1.000
    O558    O    0.08861   0.38474   0.47436   1.000
    O559    O    0.11783   0.41395   0.52477   1.000
    O560    O    0.09533   0.37908   0.52414   1.000
    O561    O    0.12373   0.40789   0.47401   1.000
    O562    O    0.09464   0.37876   0.47437   1.000
    O563    O    0.12387   0.40798   0.52475   1.000
    Zr564   Zr   0.90858   0.59154   0.50073   1.000
    O565    O    0.88460   0.58641   0.52590   1.000
    O566    O    0.88434   0.58686   0.47522   1.000
    O567    O    0.91332   0.61540   0.52587   1.000
    O568    O    0.91279   0.61606   0.47557   1.000
    O569    O    0.87857   0.59238   0.52599   1.000
    O570    O    0.87831   0.59284   0.47530   1.000
    O571    O    0.90730   0.62139   0.52597   1.000
    O572    O    0.90677   0.62205   0.47566   1.000
    Zr573   Zr   0.09203   0.59134   0.50079   1.000
    O574    O    0.08765   0.61565   0.47600   1.000
    O575    O    0.11594   0.58704   0.47566   1.000
    O576    O    0.11638   0.58708   0.52539   1.000
    O577    O    0.08737   0.61536   0.52591   1.000
    O578    O    0.09363   0.62165   0.47600   1.000
    O579    O    0.12194   0.59303   0.47566   1.000
    O580    O    0.09334   0.62137   0.52593   1.000
    O581    O    0.12237   0.59307   0.52540   1.000
    Zr582   Zr   0.90931   0.49896   0.59102   1.000
    O583    O    0.88507   0.52389   0.58678   1.000
    O584    O    0.88477   0.47401   0.58642   1.000
    O585    O    0.91392   0.47408   0.61514   1.000
    O586    O    0.91362   0.52389   0.61510   1.000
    O587    O    0.87912   0.52386   0.59281   1.000
    O588    O    0.87884   0.47398   0.59246   1.000
    O589    O    0.90799   0.47403   0.62118   1.000
    O590    O    0.90769   0.52385   0.62114   1.000
    Zr591   Zr   0.09267   0.49927   0.59135   1.000
    O592    O    0.08824   0.47455   0.61552   1.000
    O593    O    0.11683   0.52495   0.58644   1.000
    O594    O    0.11705   0.47442   0.58698   1.000
    O595    O    0.08796   0.52433   0.61548   1.000
    O596    O    0.09419   0.47450   0.62157   1.000
    O597    O    0.12280   0.52492   0.59247   1.000
    O598    O    0.12301   0.47437   0.59302   1.000
    O599    O    0.09392   0.52430   0.62152   1.000
    Zr600   Zr   0.50068   0.90970   0.40920   1.000
    O601    O    0.52567   0.88544   0.41392   1.000
    O602    O    0.52582   0.91462   0.38519   1.000
    O603    O    0.47503   0.91434   0.38475   1.000
    O604    O    0.47557   0.88512   0.41367   1.000
    O605    O    0.52595   0.90865   0.37918   1.000
    O606    O    0.52583   0.87947   0.40792   1.000
    O607    O    0.47517   0.90836   0.37875   1.000
    O608    O    0.47572   0.87914   0.40767   1.000
    Zr609   Zr   0.49839   0.09101   0.40857   1.000
    O610    O    0.47372   0.11505   0.41311   1.000
    O611    O    0.52405   0.08637   0.38450   1.000
    O612    O    0.47352   0.08669   0.38396   1.000
    O613    O    0.52338   0.11509   0.41304   1.000
    O614    O    0.47368   0.12115   0.40721   1.000
    O615    O    0.52400   0.09245   0.37858   1.000
    O616    O    0.47347   0.09278   0.37805   1.000
    O617    O    0.52335   0.12118   0.40713   1.000
    Zr618   Zr   0.40776   0.99955   0.40808   1.000
    O619    O    0.38372   0.97472   0.41231   1.000
    O620    O    0.41235   0.97495   0.38394   1.000
    O621    O    0.38337   0.02453   0.41222   1.000
    O622    O    0.41240   0.02502   0.38370   1.000
    O623    O    0.37772   0.97466   0.40631   1.000
    O624    O    0.40636   0.97487   0.37793   1.000
    O625    O    0.37738   0.02448   0.40622   1.000
    O626    O    0.40642   0.02496   0.37768   1.000
    Zr627   Zr   0.59130   0.00161   0.40957   1.000
    O628    O    0.58701   0.97660   0.38542   1.000
    O629    O    0.61536   0.97664   0.41395   1.000
    O630    O    0.58680   0.02620   0.38525   1.000
    O631    O    0.61543   0.02628   0.41374   1.000
    O632    O    0.59303   0.97662   0.37946   1.000
    O633    O    0.62139   0.97665   0.40800   1.000
    O634    O    0.59281   0.02623   0.37929   1.000
    O635    O    0.62146   0.02631   0.40779   1.000
    Zr636   Zr   0.50016   0.90855   0.59150   1.000
    O637    O    0.52551   0.88417   0.58633   1.000
    O638    O    0.47487   0.91315   0.61592   1.000
    O639    O    0.52498   0.91319   0.61592   1.000
    O640    O    0.47537   0.88434   0.58725   1.000
    O641    O    0.52557   0.87812   0.59229   1.000
    O642    O    0.47495   0.90710   0.62188   1.000
    O643    O    0.52506   0.90715   0.62188   1.000
    O644    O    0.47542   0.87830   0.59322   1.000
    Zr645   Zr   0.49755   0.09096   0.59270   1.000
    O646    O    0.52302   0.11490   0.58782   1.000
    O647    O    0.47281   0.11504   0.58786   1.000
    O648    O    0.47288   0.08636   0.61706   1.000
    O649    O    0.52302   0.08659   0.61702   1.000
    O650    O    0.52294   0.12100   0.59369   1.000
    O651    O    0.47270   0.12112   0.59374   1.000
    O652    O    0.47280   0.09243   0.62295   1.000
    O653    O    0.52296   0.09267   0.62291   1.000
    Zr654   Zr   0.40927   0.90827   0.49949   1.000
    O655    O    0.38478   0.91314   0.47396   1.000
    O656    O    0.41390   0.88409   0.47451   1.000
    O657    O    0.38504   0.91272   0.52443   1.000
    O658    O    0.41410   0.88416   0.52512   1.000
    O659    O    0.37883   0.90711   0.47399   1.000
    O660    O    0.37908   0.90670   0.52446   1.000
    O661    O    0.40814   0.87814   0.52514   1.000
    O662    O    0.40795   0.87806   0.47452   1.000
    Zr663   Zr   0.59139   0.91025   0.50110   1.000
    O664    O    0.58706   0.88528   0.52537   1.000
    O665    O    0.58683   0.88585   0.47595   1.000
    O666    O    0.61539   0.91499   0.47572   1.000
    O667    O    0.61535   0.91450   0.52583   1.000
    O668    O    0.59315   0.87935   0.52539   1.000
    O669    O    0.59293   0.87993   0.47597   1.000
    O670    O    0.62148   0.90907   0.47575   1.000
    O671    O    0.62144   0.90857   0.52587   1.000
    Zr672   Zr   0.40726   0.08925   0.50002   1.000
    O673    O    0.38321   0.08453   0.52563   1.000
    O674    O    0.41228   0.11383   0.47486   1.000
    O675    O    0.38305   0.08494   0.47431   1.000
    O676    O    0.41194   0.11385   0.52522   1.000
    O677    O    0.37719   0.09053   0.52560   1.000
    O678    O    0.40624   0.11981   0.47483   1.000
    O679    O    0.37703   0.09094   0.47430   1.000
    O680    O    0.40591   0.11984   0.52517   1.000
    Zr681   Zr   0.58948   0.09165   0.50117   1.000
    O682    O    0.58511   0.11537   0.52603   1.000
    O683    O    0.61425   0.08691   0.47557   1.000
    O684    O    0.61415   0.08731   0.52596   1.000
    O685    O    0.58482   0.11549   0.47559   1.000
    O686    O    0.59094   0.12151   0.52608   1.000
    O687    O    0.62009   0.09305   0.47562   1.000
    O688    O    0.61999   0.09345   0.52601   1.000
    O689    O    0.59065   0.12164   0.47565   1.000
    Zr690   Zr   0.40830   0.99893   0.59198   1.000
    O691    O    0.38398   0.02378   0.58780   1.000
    O692    O    0.41292   0.97413   0.61634   1.000
    O693    O    0.38447   0.97391   0.58689   1.000
    O694    O    0.41275   0.02434   0.61653   1.000
    O695    O    0.37791   0.02364   0.59370   1.000
    O696    O    0.40684   0.97395   0.62223   1.000
    O697    O    0.37838   0.97377   0.59277   1.000
    O698    O    0.40668   0.02418   0.62243   1.000
    Zr699   Zr   0.58973   0.00120   0.59219   1.000
    O700    O    0.61420   0.97589   0.58725   1.000
    O701    O    0.58534   0.97576   0.61637   1.000
    O702    O    0.61421   0.02639   0.58739   1.000
    O703    O    0.58518   0.02610   0.61652   1.000
    O704    O    0.62019   0.97587   0.59327   1.000
    O705    O    0.59134   0.97575   0.62238   1.000
    O706    O    0.62022   0.02636   0.59340   1.000
    O707    O    0.59119   0.02607   0.62252   1.000
    Zr708   Zr   0.49966   0.40934   0.90935   1.000
    O709    O    0.52486   0.41338   0.88482   1.000
    O710    O    0.47506   0.41382   0.88515   1.000
    O711    O    0.52447   0.38485   0.91401   1.000
    O712    O    0.47462   0.38566   0.91398   1.000
    O713    O    0.52472   0.40732   0.87892   1.000
    O714    O    0.47490   0.40776   0.87925   1.000
    O715    O    0.52433   0.37878   0.90812   1.000
    O716    O    0.47446   0.37958   0.90809   1.000
    Zr717   Zr   0.50175   0.59062   0.90745   1.000
    O718    O    0.47644   0.61526   0.91235   1.000
    O719    O    0.52670   0.58648   0.88347   1.000
    O720    O    0.47593   0.58573   0.88353   1.000
    O721    O    0.52629   0.61493   0.91205   1.000
    O722    O    0.47647   0.62124   0.90632   1.000
    O723    O    0.52673   0.59245   0.87743   1.000
    O724    O    0.47595   0.59170   0.87748   1.000
    O725    O    0.52632   0.62091   0.90603   1.000
    Zr726   Zr   0.40917   0.50111   0.90999   1.000
    O727    O    0.38493   0.47556   0.91490   1.000
    O728    O    0.41344   0.52540   0.88528   1.000
    O729    O    0.41397   0.47565   0.88566   1.000
    O730    O    0.38539   0.52595   0.91425   1.000
    O731    O    0.37884   0.47565   0.90898   1.000
    O732    O    0.40736   0.52549   0.87936   1.000
    O733    O    0.40789   0.47573   0.87974   1.000
    O734    O    0.37930   0.52604   0.90833   1.000
    Zr735   Zr   0.59195   0.49903   0.90940   1.000
    O736    O    0.61577   0.47431   0.91389   1.000
    O737    O    0.58703   0.47388   0.88488   1.000
    O738    O    0.58748   0.52471   0.88479   1.000
    O739    O    0.61622   0.52415   0.91394   1.000
    O740    O    0.59358   0.52458   0.87892   1.000
    O741    O    0.59313   0.47375   0.87902   1.000
    O742    O    0.62187   0.47418   0.90803   1.000
    O743    O    0.62232   0.52402   0.90808   1.000
    Zr744   Zr   0.50040   0.41060   0.09395   1.000
    O745    O    0.52506   0.38564   0.08937   1.000
    O746    O    0.52561   0.41473   0.11788   1.000
    O747    O    0.47498   0.38641   0.08864   1.000
    O748    O    0.47506   0.41511   0.11757   1.000
    O749    O    0.52499   0.37968   0.09541   1.000
    O750    O    0.52554   0.40878   0.12393   1.000
    O751    O    0.47490   0.38044   0.09467   1.000
    O752    O    0.47497   0.40916   0.12362   1.000
    Zr753   Zr   0.50200   0.59268   0.09189   1.000
    O754    O    0.47646   0.58818   0.11623   1.000
    O755    O    0.52659   0.58786   0.11590   1.000
    O756    O    0.52674   0.61688   0.08744   1.000
    O757    O    0.47697   0.61692   0.08786   1.000
    O758    O    0.47661   0.59413   0.12224   1.000
    O759    O    0.52688   0.62285   0.09344   1.000
    O760    O    0.47709   0.62288   0.09386   1.000
    O761    O    0.52675   0.59382   0.12191   1.000
    Zr762   Zr   0.40877   0.41098   0.00219   1.000
    O763    O    0.38457   0.41486   0.97717   1.000
    O764    O    0.38450   0.41521   0.02697   1.000
    O765    O    0.41313   0.38668   0.02672   1.000
    O766    O    0.41329   0.38677   0.97669   1.000
    O767    O    0.37859   0.40886   0.97723   1.000
    O768    O    0.37852   0.40920   0.02703   1.000
    O769    O    0.40716   0.38067   0.02678   1.000
    O770    O    0.40732   0.38076   0.97676   1.000
    Zr771   Zr   0.58971   0.40805   0.00159   1.000
    O772    O    0.61423   0.41293   0.97614   1.000
    O773    O    0.58520   0.38391   0.02699   1.000
    O774    O    0.58510   0.38396   0.97636   1.000
    O775    O    0.61473   0.41272   0.02631   1.000
    O776    O    0.62064   0.40661   0.02630   1.000
    O777    O    0.62014   0.40683   0.97615   1.000
    O778    O    0.59111   0.37781   0.02698   1.000
    O779    O    0.59103   0.37786   0.97637   1.000
    Zr780   Zr   0.41208   0.59370   0.99991   1.000
    O781    O    0.41603   0.61743   0.97484   1.000
    O782    O    0.38738   0.58873   0.02518   1.000
    O783    O    0.41643   0.61761   0.02579   1.000
    O784    O    0.38740   0.58848   0.97491   1.000
    O785    O    0.41008   0.62349   0.97473   1.000
    O786    O    0.41047   0.62367   0.02568   1.000
    O787    O    0.38145   0.59454   0.97481   1.000
    O788    O    0.38142   0.59479   0.02507   1.000
    Zr789   Zr   0.59181   0.59101   0.00012   1.000
    O790    O    0.58731   0.61568   0.02555   1.000
    O791    O    0.61636   0.58635   0.02533   1.000
    O792    O    0.58692   0.61525   0.97470   1.000
    O793    O    0.61612   0.58615   0.97525   1.000
    O794    O    0.59335   0.62163   0.02542   1.000
    O795    O    0.62239   0.59231   0.02520   1.000
    O796    O    0.59296   0.62120   0.97459   1.000
    O797    O    0.62215   0.59211   0.97513   1.000
    Zr798   Zr   0.40969   0.50284   0.09218   1.000
    O799    O    0.41419   0.52755   0.11647   1.000
    O800    O    0.38568   0.52739   0.08738   1.000
    O801    O    0.38516   0.47712   0.08769   1.000
    O802    O    0.41387   0.47732   0.11630   1.000
    O803    O    0.40817   0.52772   0.12242   1.000
    O804    O    0.37966   0.52758   0.09333   1.000
    O805    O    0.37914   0.47730   0.09364   1.000
    O806    O    0.40786   0.47749   0.12225   1.000
    Zr807   Zr   0.59314   0.49999   0.09100   1.000
    O808    O    0.58810   0.52530   0.11525   1.000
    O809    O    0.58818   0.47498   0.11578   1.000
    O810    O    0.61736   0.52491   0.08657   1.000
    O811    O    0.61716   0.47474   0.08656   1.000
    O812    O    0.59414   0.52530   0.12121   1.000
    O813    O    0.59422   0.47498   0.12174   1.000
    O814    O    0.62341   0.52491   0.09253   1.000
    O815    O    0.62320   0.47472   0.09252   1.000
loop_
    _geom_bond_atom_site_label_1
    _geom_bond_atom_site_label_2
    _geom_bond_distance
    _geom_bond_site_symmetry_2
    _ccdc_geom_bond_type
    Zr96   O97       3.11610      .   S
    N1     O97       8.46552      .   S
    Zr96   O98       3.17346      .   S
    N2     O98       8.59795      .   S
    Zr99   O100      3.48009      .   S
    N1     O100      8.88277      .   S
    Zr99   O101      3.30912      .   S
    N3     O101      8.67495      .   S
    Zr102  O103      3.18021      .   S
    N3     O103      8.62069      .   S
    Zr102  O104      3.10202      .   S
    N2     O104      8.43780      .   S
    Zr105  O106      3.13386      .   S
    N4     O106      8.50320      .   S
    Zr105  O107      3.18224      .   S
    N5     O107      8.63141      .   S
    Zr108  O109      3.13854      .   S
    N4     O109      8.52349      .   S
    Zr108  O110      3.14827      .   S
    N6     O110      8.55224      .   S
    Zr111  O112      3.47767      .   S
    N5     O112      8.85996      .   S
    Zr111  O113      3.31803      .   S
    N6     O113      8.71815      .   S
    Zr114  O115      3.14613      .   S
    N7     O115      8.54326      .   S
    Zr114  O116      3.16228      .   S
    N8     O116      8.57605      .   S
    Zr117  O118      3.48314      .   S
    N7     O118      8.89825      .   S
    Zr117  O119      3.30981      .   S
    N9     O119      8.67146      .   S
    Zr120  O121      3.16235      .   S
    N9     O121      8.57828      .   S
    Zr120  O122      3.13198      .   S
    N8     O122      8.51842      .   S
    Zr123  O124      3.12446      .   S
    N11    O124      8.49422      .   S
    Zr123  O125      3.18014      .   S
    N10    O125      8.62550      .   S
    Zr126  O127      3.29565      .   S
    N12    O127      8.68289      .   S
    Zr126  O128      3.47965      .   S
    N10    O128      8.85035      .   S
    Zr129  O130      3.11063      .   S
    N12    O130      8.45116      .   S
    Zr129  O131      3.16670      .   S
    N11    O131      8.59451      .   S
    Zr132  O133      3.17286      .   S
    N14    O133      8.61021      .   S
    Zr132  O134      3.12374      .   S
    N13    O134      8.48062      .   S
    Zr135  O136      3.15491      .   S
    N15    O136      8.56874      .   S
    Zr135  O137      3.14566      .   S
    N13    O137      8.53650      .   S
    Zr138  O139      3.31665      .   S
    N15    O139      8.72144      .   S
    Zr138  O140      3.48439      .   S
    N14    O140      8.87453      .   S
    Zr141  O142      3.14525      .   S
    N16    O142      8.52953      .   S
    Zr141  O143      3.13852      .   S
    N17    O143      8.51723      .   S
    Zr144  O145      3.16483      .   S
    N18    O145      8.58603      .   S
    Zr144  O146      3.13362      .   S
    N16    O146      8.51392      .   S
    Zr147  O148      3.31446      .   S
    N18    O148      8.68760      .   S
    Zr147  O149      3.47280      .   S
    N17    O149      8.86407      .   S
    Zr150  O151      3.12006      .   S
    N20    O151      8.47452      .   S
    Zr150  O152      3.17250      .   S
    N19    O152      8.59263      .   S
    Zr153  O154      3.17889      .   S
    N21    O154      8.61647      .   S
    Zr153  O155      3.09181      .   S
    N19    O155      8.41425      .   S
    Zr156  O157      3.31085      .   S
    N21    O157      8.66729      .   S
    Zr156  O158      3.47601      .   S
    N20    O158      8.87427      .   S
    Zr159  O160      3.15393      .   S
    N22    O160      8.56287      .   S
    Zr159  O161      3.14770      .   S
    N23    O161      8.53535      .   S
    Zr162  O163      3.31280      .   S
    N24    O163      8.69158      .   S
    Zr162  O164      3.48492      .   S
    N22    O164      8.90463      .   S
    Zr165  O166      3.13231      .   S
    N23    O166      8.51236      .   S
    Zr165  O167      3.15293      .   S
    N24    O167      8.55883      .   S
    Zr168  O169      3.16535      .   S
    N25    O169      8.59356      .   S
    Zr168  O170      3.16974      .   S
    N26    O170      8.60067      .   S
    Zr171  O172      3.49657      .   S
    N25    O172      8.89755      .   S
    Zr171  O173      3.31429      .   S
    N27    O173      8.70852      .   S
    Zr174  O175      3.17660      .   S
    N27    O175      8.61722      .   S
    Zr174  O176      3.13616      .   S
    N26    O176      8.52276      .   S
    Zr177  O178      3.17594      .   S
    N29    O178      8.61666      .   S
    Zr177  O179      3.14285      .   S
    N28    O179      8.53445      .   S
    Zr180  O181      3.15400      .   S
    N28    O181      8.56630      .   S
    Zr180  O182      3.13939      .   S
    N0     O182      8.52769      .   S
    Zr183  O184      3.48011      .   S
    N29    O184      8.86386      .   S
    Zr183  O185      3.30973      .   S
    N0     O185      8.70400      .   S
    Zr186  O187      3.18671      .   S
    N30    O187      8.63976      .   S
    Zr186  O188      3.13471      .   S
    N31    O188      8.52070      .   S
    Zr189  O190      3.48556      .   S
    N30    O190      8.85616      .   S
    Zr189  O191      3.31774      .   S
    N32    O191      8.75890      .   S
    Zr192  O193      3.12581      .   S
    N32    O193      8.50073      .   S
    Zr192  O194      3.17427      .   S
    N31    O194      8.61458      .   S
    Zr195  O196      3.15118      .   S
    N34    O196      8.54860      .   S
    Zr195  O197      3.14173      .   S
    N33    O197      8.52935      .   S
    Zr198  O199      3.47450      .   S
    N33    O199      8.83881      .   S
    Zr198  O200      3.31189      .   S
    N35    O200      8.70068      .   S
    Zr201  O202      3.11682      .   S
    N34    O202      8.46568      .   S
    Zr201  O203      3.17491      .   S
    N35    O203      8.61187      .   S
    Zr204  O205      3.14690      .   S
    N36    O205      8.54771      .   S
    Zr204  O206      3.15864      .   S
    N37    O206      8.57028      .   S
    Zr207  O208      3.31128      .   S
    N38    O208      8.69012      .   S
    Zr207  O209      3.47381      .   S
    N36    O209      8.85699      .   S
    Zr210  O211      3.16964      .   S
    N38    O211      8.59784      .   S
    Zr210  O212      3.11764      .   S
    N37    O212      8.47485      .   S
    Zr213  O214      3.13063      .   S
    N39    O214      8.50958      .   S
    Zr213  O215      3.17078      .   S
    N40    O215      8.59204      .   S
    Zr216  O217      3.41177      .   S
    N39    O217      8.84250      .   S
    Zr216  O218      3.25372      .   S
    N41    O218      8.62236      .   S
    Zr219  O220      3.28728      .   S
    N41    O220      8.72654      .   S
    Zr219  O221      3.37871      .   S
    N40    O221      8.71800      .   S
    Zr222  O223      3.11283      .   S
    N43    O223      8.45720      .   S
    Zr222  O224      3.18443      .   S
    N42    O224      8.63160      .   S
    Zr225  O226      3.30912      .   S
    N44    O226      8.74123      .   S
    Zr225  O227      3.48193      .   S
    N42    O227      8.84034      .   S
    Zr228  O229      3.15743      .   S
    N43    O229      8.56210      .   S
    Zr228  O230      3.11973      .   S
    N44    O230      8.48340      .   S
    Zr231  O232      3.47922      .   S
    N46    O232      8.85542      .   S
    Zr231  O233      3.31373      .   S
    N52    O233      8.71464      .   S
    Zr234  O235      3.13758      .   S
    N54    O235      8.51493      .   S
    Zr234  O236      3.14737      .   S
    N51    O236      8.53319      .   S
    Zr237  O238      3.16207      .   S
    N56    O238      8.57839      .   S
    Zr237  O239      3.12465      .   S
    N51    O239      8.49426      .   S
    Zr240  O241      3.47204      .   S
    N54    O241      8.86521      .   S
    Zr240  O242      3.31161      .   S
    N56    O242      8.67834      .   S
    Zr243  O244      3.15878      .   S
    N55    O244      8.57381      .   S
    Zr243  O245      3.16626      .   S
    N58    O245      8.58679      .   S
    Zr246  O247      3.30096      .   S
    N59    O247      8.68114      .   S
    Zr246  O248      3.49103      .   S
    N55    O248      8.87740      .   S
    Zr249  O250      3.16912      .   S
    N59    O250      8.59623      .   S
    Zr249  O251      3.12207      .   S
    N58    O251      8.48524      .   S
    Zr252  O253      3.14892      .   S
    N60    O253      8.54598      .   S
    Zr252  O254      3.16795      .   S
    N57    O254      8.59437      .   S
    Zr255  O256      3.31488      .   S
    N61    O256      8.70524      .   S
    Zr255  O257      3.47520      .   S
    N60    O257      8.84302      .   S
    Zr258  O259      3.12509      .   S
    N57    O259      8.49651      .   S
    Zr258  O260      3.16814      .   S
    N61    O260      8.59735      .   S
    Zr261  O262      3.16259      .   S
    N62    O262      8.58156      .   S
    Zr261  O263      3.14595      .   S
    N46    O263      8.54047      .   S
    Zr264  O265      3.12966      .   S
    N62    O265      8.50566      .   S
    Zr264  O266      3.16538      .   S
    N52    O266      8.59287      .   S
    Zr267  O268      3.17141      .   S
    N63    O268      8.60600      .   S
    Zr267  O269      3.13351      .   S
    N53    O269      8.50957      .   S
    Zr270  O271      3.14637      .   S
    N64    O271      8.54712      .   S
    Zr270  O272      3.15131      .   S
    N53    O272      8.55670      .   S
    Zr273  O274      3.31041      .   S
    N64    O274      8.70762      .   S
    Zr273  O275      3.48139      .   S
    N63    O275      8.86603      .   S
    Zr276  O277      3.14546      .   S
    N65    O277      8.53042      .   S
    Zr276  O278      3.14739      .   S
    N66    O278      8.54836      .   S
    Zr279  O280      3.35666      .   S
    N65    O280      8.72787      .   S
    Zr279  O281      3.27078      .   S
    N67    O281      8.67098      .   S
    Zr282  O283      3.34776      .   S
    N66    O283      8.76696      .   S
    Zr282  O284      3.26784      .   S
    N67    O284      8.65001      .   S
    Zr285  O286      3.15205      .   S
    N68    O286      8.56158      .   S
    Zr285  O287      3.16598      .   S
    N69    O287      8.58765      .   S
    Zr288  O289      3.48909      .   S
    N68    O289      8.88783      .   S
    Zr288  O290      3.30819      .   S
    N70    O290      8.69696      .   S
    Zr291  O292      3.16357      .   S
    N70    O292      8.58571      .   S
    Zr291  O293      3.12213      .   S
    N69    O293      8.48737      .   S
    Zr294  O295      3.13077      .   S
    N45    O295      8.50793      .   S
    Zr294  O296      3.17256      .   S
    N71    O296      8.60949      .   S
    Zr297  O298      3.23708      .   S
    N72    O298      8.65904      .   S
    Zr297  O299      3.34889      .   S
    N45    O299      8.76598      .   S
    Zr300  O301      3.29824      .   S
    N72    O301      8.70059      .   S
    Zr300  O302      3.28549      .   S
    N71    O302      8.66952      .   S
    Zr303  O304      3.15634      .   S
    N73    O304      8.56953      .   S
    Zr303  O305      3.16851      .   S
    N74    O305      8.59321      .   S
    Zr306  O307      3.31323      .   S
    N75    O307      8.68693      .   S
    Zr306  O308      3.48933      .   S
    N73    O308      8.91336      .   S
    Zr309  O310      3.16071      .   S
    N75    O310      8.57717      .   S
    Zr309  O311      3.14198      .   S
    N74    O311      8.54470      .   S
    Zr312  O313      3.15642      .   S
    N50    O313      8.57349      .   S
    Zr312  O314      3.16215      .   S
    N76    O314      8.58266      .   S
    Zr315  O316      3.12980      .   S
    N76    O316      8.50675      .   S
    Zr315  O317      3.17386      .   S
    N77    O317      8.61054      .   S
    Zr318  O319      3.49012      .   S
    N50    O319      8.88972      .   S
    Zr318  O320      3.31667      .   S
    N77    O320      8.70649      .   S
    Zr321  O322      3.16708      .   S
    N78    O322      8.59104      .   S
    Zr321  O323      3.15477      .   S
    N79    O323      8.56820      .   S
    Zr324  O325      3.16926      .   S
    N47    O325      8.60056      .   S
    Zr324  O326      3.14511      .   S
    N78    O326      8.55161      .   S
    Zr327  O328      3.32137      .   S
    N47    O328      8.71242      .   S
    Zr327  O329      3.49429      .   S
    N79    O329      8.92904      .   S
    Zr330  O331      3.17370      .   S
    N80    O331      8.61072      .   S
    Zr330  O332      3.14259      .   S
    N81    O332      8.53131      .   S
    Zr333  O334      3.47790      .   S
    N80    O334      8.86067      .   S
    Zr333  O335      3.31472      .   S
    N82    O335      8.71687      .   S
    Zr336  O337      3.14504      .   S
    N82    O337      8.54504      .   S
    Zr336  O338      3.14794      .   S
    N81    O338      8.55161      .   S
    Zr339  O340      3.11773      .   S
    N84    O340      8.48009      .   S
    Zr339  O341      3.17786      .   S
    N83    O341      8.61538      .   S
    Zr342  O343      3.36143      .   S
    N83    O343      8.70742      .   S
    Zr342  O344      3.27096      .   S
    N85    O344      8.69821      .   S
    Zr345  O346      3.35431      .   S
    N84    O346      8.77975      .   S
    Zr345  O347      3.26077      .   S
    N85    O347      8.61931      .   S
    Zr348  O349      3.16421      .   S
    N49    O349      8.58419      .   S
    Zr348  O350      3.15111      .   S
    N86    O350      8.55605      .   S
    Zr351  O352      3.48929      .   S
    N86    O352      8.91067      .   S
    Zr351  O353      3.31303      .   S
    N87    O353      8.68233      .   S
    Zr354  O355      3.14416      .   S
    N49    O355      8.54848      .   S
    Zr354  O356      3.16868      .   S
    N87    O356      8.59447      .   S
    Zr357  O358      3.16425      .   S
    N88    O358      8.58579      .   S
    Zr357  O359      3.14902      .   S
    N89    O359      8.55248      .   S
    Zr360  O361      3.39972      .   S
    N88    O361      8.76319      .   S
    Zr360  O362      3.23608      .   S
    N48    O362      8.65846      .   S
    Zr363  O364      3.33577      .   S
    N89    O364      8.71702      .   S
    Zr363  O365      3.29037      .   S
    N48    O365      8.67349      .   S
    Zr366  O367      3.14266      .   S
    N90    O367      8.53484      .   S
    Zr366  O368      3.14962      .   S
    N91    O368      8.55074      .   S
    Zr369  O370      3.30920      .   S
    N90    O370      8.72561      .   S
    Zr369  O371      3.26895      .   S
    N92    O371      8.63914      .   S
    Zr372  O373      3.30725      .   S
    N91    O373      8.72105      .   S
    Zr372  O374      3.25497      .   S
    N92    O374      8.67437      .   S
    Zr375  O376      3.16627      .   S
    N93    O376      8.58957      .   S
    Zr375  O377      3.14660      .   S
    N94    O377      8.53862      .   S
    Zr378  O379      3.12378      .   S
    N93    O379      8.49288      .   S
    Zr378  O380      3.16449      .   S
    N95    O380      8.58717      .   S
    Zr381  O382      3.47402      .   S
    N94    O382      8.83787      .   S
    Zr381  O383      3.30835      .   S
    N95    O383      8.69263      .   S
    Zr384  O385      2.53594  1_565   S
    N49    O385      7.39210      .   S
    Zr384  O386      2.54295      .   S
    N3     O386      7.40241      .   S
    Zr384  O387      2.53877      .   S
    N42    O387      7.39872      .   S
    Zr384  O388      2.53637  1_565   S
    N45    O388      7.39352      .   S
    Zr384  O389      2.83008  1_565   S
    N49    O389      7.06489      .   S
    Zr384  O390      2.83404      .   S
    N3     O390      7.07823      .   S
    Zr384  O391      2.82864  1_565   S
    N45    O391      7.06752      .   S
    Zr384  O392      2.83200      .   S
    N42    O392      7.07235      .   S
    Zr393  O394      2.49215      .   S
    N15    O394      7.28768      .   S
    Zr393  O395      2.50680  1_545   S
    N50    O395      7.31927      .   S
    Zr393  O396      2.55429      .   S
    N30    O396      7.42859      .   S
    Zr393  O397      2.53400  1_545   S
    N46    O397      7.37290      .   S
    Zr393  O398      2.79530      .   S
    N15    O398      6.94989      .   S
    Zr393  O399      2.80555  1_545   S
    N50    O399      6.98654      .   S
    Zr393  O400      2.84210      .   S
    N30    O400      7.10773      .   S
    Zr393  O401      2.82565  1_545   S
    N46    O401      7.04824      .   S
    Zr402  O403      2.51006      .   S
    N30    O403      7.32752      .   S
    Zr402  O404      2.49216      .   S
    N5     O404      7.28730      .   S
    Zr402  O405      2.49985  1_655   S
    N45    O405      7.30414      .   S
    Zr402  O406      2.50312  1_655   S
    N47    O406      7.31378      .   S
    Zr402  O407      2.80975      .   S
    N30    O407      6.99380      .   S
    Zr402  O408      2.79492      .   S
    N5     O408      6.95016      .   S
    Zr402  O409      2.80036  1_655   S
    N45    O409      6.96922      .   S
    Zr402  O410      2.80438  1_655   S
    N47    O410      6.97818      .   S
    Zr411  O412      2.54992  1_655   S
    N17    O412      7.41404      .   S
    Zr411  O413      2.50646  1_655   S
    N42    O413      7.31727      .   S
    Zr411  O414      2.51208      .   S
    N46    O414      7.34286      .   S
    Zr411  O415      2.49556      .   S
    N48    O415      7.29475      .   S
    Zr411  O416      2.83737  1_655   S
    N17    O416      7.09420      .   S
    Zr411  O417      2.80524  1_655   S
    N42    O417      6.98456      .   S
    Zr411  O418      2.81175      .   S
    N46    O418      7.00860      .   S
    Zr411  O419      2.79853      .   S
    N48    O419      6.95739      .   S
    Zr420  O421      2.46786      .   S
    N58    O421      7.23524      .   S
    Zr420  O422      2.56545  1_565   S
    N19    O422      7.43885      .   S
    Zr420  O423      2.55489  1_565   S
    N27    O423      7.42958      .   S
    Zr420  O424      2.50493      .   S
    N80    O424      7.32163      .   S
    Zr420  O425      2.77428      .   S
    N58    O425      6.89276      .   S
    Zr420  O426      2.84393  1_565   S
    N27    O426      7.10848      .   S
    Zr420  O427      2.84430  1_565   S
    N19    O427      7.12763      .   S
    Zr420  O428      2.80929      .   S
    N80    O428      6.98350      .   S
    Zr429  O430      2.54784  1_545   S
    N38    O430      7.41625      .   S
    Zr429  O431      2.54565      .   S
    N66    O431      7.41012      .   S
    Zr429  O432      2.52704      .   S
    N90    O432      7.37027      .   S
    Zr429  O433      2.50973  1_545   S
    N7     O433      7.32769      .   S
    Zr429  O434      2.83674  1_545   S
    N38    O434      7.09408      .   S
    Zr429  O435      2.83646      .   S
    N66    O435      7.08618      .   S
    Zr429  O436      2.82179      .   S
    N90    O436      7.04193      .   S
    Zr429  O437      2.81003  1_545   S
    N7     O437      6.99377      .   S
    Zr438  O439      2.50266  1_556   S
    N49    O439      7.31158      .   S
    Zr438  O440      2.49646      .   S
    N27    O440      7.30056      .   S
    Zr438  O441      2.55423      .   S
    N40    O441      7.42603      .   S
    Zr438  O442      2.54292  1_556   S
    N47    O442      7.40732      .   S
    Zr438  O443      2.80430  1_556   S
    N49    O443      6.97619      .   S
    Zr438  O444      2.79924      .   S
    N27    O444      6.96347      .   S
    Zr438  O445      2.84182      .   S
    N40    O445      7.10572      .   S
    Zr438  O446      2.83349  1_556   S
    N47    O446      7.08296      .   S
    Zr447  O448      2.50098      .   S
    N3     O448      7.30759      .   S
    Zr447  O449      2.50097      .   S
    N17    O449      7.29965      .   S
    Zr447  O450      2.51510  1_554   S
    N70    O450      7.33501      .   S
    Zr447  O451      2.53561  1_554   S
    N58    O451      7.38080      .   S
    Zr447  O452      2.81229  1_554   S
    N70    O452      7.00457      .   S
    Zr447  O453      2.80314      .   S
    N3     O453      6.97139      .   S
    Zr447  O454      2.79923      .   S
    N17    O454      6.96741      .   S
    Zr447  O455      2.82340  1_554   S
    N58    O455      7.05913      .   S
    Zr456  O457      2.54541  1_556   S
    N15    O457      7.41288      .   S
    Zr456  O458      2.49735      .   S
    N61    O458      7.30088      .   S
    Zr456  O459      2.49932      .   S
    N66    O459      7.30885      .   S
    Zr456  O460      2.56993  1_556   S
    N5     O460      7.46194      .   S
    Zr456  O461      2.83431  1_556   S
    N15    O461      7.09035      .   S
    Zr456  O462      2.80390      .   S
    N66    O462      6.97007      .   S
    Zr456  O463      2.79988      .   S
    N61    O463      6.96397      .   S
    Zr456  O464      2.85399  1_556   S
    N5     O464      7.14591      .   S
    Zr465  O466      2.48719      .   S
    N38    O466      7.28017      .   S
    Zr465  O467      2.52713  1_556   S
    N50    O467      7.37635      .   S
    Zr465  O468      2.54649      .   S
    N29    O468      7.41094      .   S
    Zr465  O469      2.56098  1_556   S
    N48    O469      7.44194      .   S
    Zr465  O470      2.79319      .   S
    N38    O470      6.93958      .   S
    Zr465  O471      2.82197  1_556   S
    N50    O471      7.04758      .   S
    Zr465  O472      2.83688      .   S
    N29    O472      7.08779      .   S
    Zr465  O473      2.84718  1_556   S
    N48    O473      7.12316      .   S
    Zr474  O475      2.54827  1_455   S
    N61    O475      7.40910      .   S
    Zr474  O476      2.46866      .   S
    N19    O476      7.23514      .   S
    Zr474  O477      2.49748      .   S
    N40    O477      7.29935      .   S
    Zr474  O478      2.52232  1_455   S
    N90    O478      7.35050      .   S
    Zr474  O479      2.83405  1_455   S
    N61    O479      7.09035      .   S
    Zr474  O480      2.77563      .   S
    N19    O480      6.89265      .   S
    Zr474  O481      2.80066      .   S
    N40    O481      6.96197      .   S
    Zr474  O482      2.81803  1_455   S
    N90    O482      7.02171      .   S
    Zr483  O484      2.53469      .   S
    N7     O484      7.38795      .   S
    Zr483  O485      2.50586      .   S
    N29    O485      7.31864      .   S
    Zr483  O486      2.54521  1_655   S
    N80    O486      7.40637      .   S
    Zr483  O487      2.52353  1_655   S
    N70    O487      7.35880      .   S
    Zr483  O488      2.82675      .   S
    N7     O488      7.06220      .   S
    Zr483  O489      2.80719      .   S
    N29    O489      6.98362      .   S
    Zr483  O490      2.83538  1_655   S
    N80    O490      7.08324      .   S
    Zr483  O491      2.81735  1_655   S
    N70    O491      7.03139      .   S
    Zr492  O493      2.51703  1_455   S
    N4     O493      7.35018      .   S
    Zr492  O494      2.55078  1_455   S
    N31    O494      7.42727      .   S
    Zr492  O495      2.51875      .   S
    N72    O495      7.34705      .   S
    Zr492  O496      2.51977      .   S
    N78    O496      7.34788      .   S
    Zr492  O497      2.81249  1_455   S
    N4     O497      7.01997      .   S
    Zr492  O498      2.84178  1_455   S
    N31    O498      7.10326      .   S
    Zr492  O499      2.81606      .   S
    N72    O499      7.01606      .   S
    Zr492  O500      2.81794      .   S
    N78    O500      7.01672      .   S
    Zr501  O502      2.53483  1_655   S
    N43    O502      7.37851      .   S
    Zr501  O503      2.54150  1_655   S
    N16    O503      7.40607      .   S
    Zr501  O504      2.53014      .   S
    N88    O504      7.37025      .   S
    Zr501  O505      2.52702      .   S
    N52    O505      7.37507      .   S
    Zr501  O506      2.82363  1_655   S
    N43    O506      7.05634      .   S
    Zr501  O507      2.83546  1_655   S
    N16    O507      7.07909      .   S
    Zr501  O508      2.82077      .   S
    N88    O508      7.04573      .   S
    Zr501  O509      2.82590      .   S
    N52    O509      7.04313      .   S
    Zr510  O511      2.51491      .   S
    N63    O511      7.33603      .   S
    Zr510  O512      2.51021      .   S
    N4     O512      7.32218      .   S
    Zr510  O513      2.48346      .   S
    N88    O513      7.27145      .   S
    Zr510  O514      2.55324      .   S
    N35    O514      7.42120      .   S
    Zr510  O515      2.81243      .   S
    N63    O515      7.00459      .   S
    Zr510  O516      2.80706      .   S
    N4     O516      6.99131      .   S
    Zr510  O517      2.78870      .   S
    N88    O517      6.93134      .   S
    Zr510  O518      2.84011      .   S
    N35    O518      7.10191      .   S
    Zr519  O520      2.55270      .   S
    N54    O520      7.42413      .   S
    Zr519  O521      2.51507      .   S
    N24    O521      7.33970      .   S
    Zr519  O522      2.49935      .   S
    N16    O522      7.30357      .   S
    Zr519  O523      2.52694      .   S
    N78    O523      7.36804      .   S
    Zr519  O524      2.84175      .   S
    N54    O524      7.10251      .   S
    Zr519  O525      2.80996      .   S
    N24    O525      7.01048      .   S
    Zr519  O526      2.80352      .   S
    N16    O526      6.96567      .   S
    Zr519  O527      2.81926      .   S
    N78    O527      7.04207      .   S
    Zr528  O529      2.52398      .   S
    N20    O529      7.36731      .   S
    Zr528  O530      2.55198      .   S
    N39    O530      7.42334      .   S
    Zr528  O531      2.54947  1_455   S
    N60    O531      7.41871      .   S
    Zr528  O532      2.53155  1_455   S
    N92    O532      7.38102      .   S
    Zr528  O533      2.82013      .   S
    N20    O533      7.03705      .   S
    Zr528  O534      2.84183      .   S
    N39    O534      7.10097      .   S
    Zr528  O535      2.83844  1_455   S
    N60    O535      7.09661      .   S
    Zr528  O536      2.82549  1_455   S
    N92    O536      7.05389      .   S
    Zr537  O538      2.52014  1_455   S
    N8     O538      7.35539      .   S
    Zr537  O539      2.52514      .   S
    N82    O539      7.36464      .   S
    Zr537  O540      2.51365      .   S
    N68    O540      7.34260      .   S
    Zr537  O541      2.52503  1_455   S
    N28    O541      7.36522      .   S
    Zr537  O542      2.81677  1_455   S
    N8     O542      7.02501      .   S
    Zr537  O543      2.82067      .   S
    N82    O543      7.03562      .   S
    Zr537  O544      2.81224      .   S
    N68    O544      7.01001      .   S
    Zr537  O545      2.82029  1_455   S
    N28    O545      7.03648      .   S
    Zr546  O547      2.49715      .   S
    N31    O547      7.30053      .   S
    Zr546  O548      2.48931      .   S
    N92    O548      7.27897      .   S
    Zr546  O549      2.50607      .   S
    N35    O549      7.31345      .   S
    Zr546  O550      2.53499      .   S
    N74    O550      7.37625      .   S
    Zr546  O551      2.82729      .   S
    N74    O551      7.05105      .   S
    Zr546  O552      2.79965      .   S
    N31    O552      6.96344      .   S
    Zr546  O553      2.79016      .   S
    N92    O553      6.94341      .   S
    Zr546  O554      2.80419      .   S
    N35    O554      6.98151      .   S
    Zr555  O556      2.51585      .   S
    N20    O556      7.33425      .   S
    Zr555  O557      2.50581      .   S
    N54    O557      7.31254      .   S
    Zr555  O558      2.54199      .   S
    N72    O558      7.40331      .   S
    Zr555  O559      2.52794      .   S
    N95    O559      7.37033      .   S
    Zr555  O560      2.81178      .   S
    N20    O560      7.00460      .   S
    Zr555  O561      2.80496      .   S
    N54    O561      6.97965      .   S
    Zr555  O562      2.83305      .   S
    N72    O562      7.07892      .   S
    Zr555  O563      2.82097      .   S
    N95    O563      7.04382      .   S
    Zr564  O565      2.51710      .   S
    N12    O565      7.33119      .   S
    Zr564  O566      2.53864      .   S
    N63    O566      7.39080      .   S
    Zr564  O567      2.50687      .   S
    N8     O567      7.31141      .   S
    Zr564  O568      2.52892      .   S
    N52    O568      7.36428      .   S
    Zr564  O569      2.81079      .   S
    N12    O569      7.00420      .   S
    Zr564  O570      2.82666      .   S
    N63    O570      7.06893      .   S
    Zr564  O571      2.80222      .   S
    N8     O571      6.98197      .   S
    Zr564  O572      2.82347      .   S
    N52    O572      7.03721      .   S
    Zr573  O574      2.49917      .   S
    N43    O574      7.29942      .   S
    Zr573  O575      2.50410      .   S
    N24    O575      7.30900      .   S
    Zr573  O576      2.49189      .   S
    N84    O576      7.28758      .   S
    Zr573  O577      2.51305      .   S
    N82    O577      7.32377      .   S
    Zr573  O578      2.79961      .   S
    N43    O578      6.96496      .   S
    Zr573  O579      2.80094      .   S
    N24    O579      6.97787      .   S
    Zr573  O580      2.80740      .   S
    N82    O580      6.99579      .   S
    Zr573  O581      2.79550      .   S
    N84    O581      6.94961      .   S
    Zr582  O583      2.50139      .   S
    N12    O583      7.29874      .   S
    Zr582  O584      2.52635      .   S
    N74    O584      7.37274      .   S
    Zr582  O585      2.49632      .   S
    N60    O585      7.29269      .   S
    Zr582  O586      2.50334      .   S
    N28    O586      7.31119      .   S
    Zr582  O587      2.79844      .   S
    N12    O587      6.96753      .   S
    Zr582  O588      2.82250      .   S
    N74    O588      7.04258      .   S
    Zr582  O589      2.79786      .   S
    N60    O589      6.95701      .   S
    Zr582  O590      2.80322      .   S
    N28    O590      6.97745      .   S
    Zr591  O592      2.49142      .   S
    N39    O592      7.28509      .   S
    Zr591  O593      2.54845      .   S
    N84    O593      7.40643      .   S
    Zr591  O594      2.50676      .   S
    N95    O594      7.31639      .   S
    Zr591  O595      2.51554      .   S
    N68    O595      7.33325      .   S
    Zr591  O596      2.79374      .   S
    N39    O596      6.94806      .   S
    Zr591  O597      2.83398      .   S
    N84    O597      7.08795      .   S
    Zr591  O598      2.80557      .   S
    N95    O598      6.98383      .   S
    Zr591  O599      2.81132      .   S
    N68    O599      7.00412      .   S
    Zr600  O601      2.50905      .   S
    N64    O601      7.32440      .   S
    Zr600  O602      2.51480      .   S
    N76    O602      7.34334      .   S
    Zr600  O603      2.55368      .   S
    N1     O603      7.42543      .   S
    Zr600  O604      2.53571      .   S
    N23    O604      7.38705      .   S
    Zr600  O605      2.81188      .   S
    N76    O605      7.01212      .   S
    Zr600  O606      2.80994      .   S
    N64    O606      6.98991      .   S
    Zr600  O607      2.84165      .   S
    N1     O607      7.10485      .   S
    Zr600  O608      2.82630      .   S
    N23    O608      7.06296      .   S
    Zr609  O610      2.48226      .   S
    N56    O610      7.26195      .   S
    Zr609  O611      2.54238      .   S
    N13    O611      7.39135      .   S
    Zr609  O612      2.52109      .   S
    N86    O612      7.35104      .   S
    Zr609  O613      2.50510      .   S
    N34    O613      7.31471      .   S
    Zr609  O614      2.78497      .   S
    N56    O614      6.92429      .   S
    Zr609  O615      2.82793      .   S
    N13    O615      7.07272      .   S
    Zr609  O616      2.81927      .   S
    N86    O616      7.01962      .   S
    Zr609  O617      2.80489      .   S
    N34    O617      6.98093      .   S
    Zr618  O619      2.49242      .   S
    N44    O619      7.28949      .   S
    Zr618  O620      2.49102      .   S
    N1     O620      7.28220      .   S
    Zr618  O621      2.51193  1_565   S
    N71    O621      7.32782      .   S
    Zr618  O622      2.54182  1_565   S
    N86    O622      7.40170      .   S
    Zr618  O623      2.79559      .   S
    N44    O623      6.95176      .   S
    Zr618  O624      2.79382      .   S
    N1     O624      6.94494      .   S
    Zr618  O625      2.80954  1_565   S
    N71    O625      6.99673      .   S
    Zr618  O626      2.83196  1_565   S
    N86    O626      7.07817      .   S
    Zr627  O628      2.50993  1_545   S
    N76    O628      7.32262      .   S
    Zr627  O629      2.49560  1_545   S
    N62    O629      7.29112      .   S
    Zr627  O630      2.49092      .   S
    N13    O630      7.27705      .   S
    Zr627  O631      2.48884      .   S
    N32    O631      7.28145      .   S
    Zr627  O632      2.80721  1_545   S
    N76    O632      6.99151      .   S
    Zr627  O633      2.79504  1_545   S
    N62    O633      6.95729      .   S
    Zr627  O634      2.79156      .   S
    N13    O634      6.94206      .   S
    Zr627  O635      2.79384      .   S
    N32    O635      6.94193      .   S
    Zr636  O637      2.54020      .   S
    N11    O637      7.39821      .   S
    Zr636  O638      2.54046      .   S
    N55    O638      7.39842      .   S
    Zr636  O639      2.51231      .   S
    N36    O639      7.32841      .   S
    Zr636  O640      2.49899      .   S
    N85    O640      7.30228      .   S
    Zr636  O641      2.83143      .   S
    N11    O641      7.07373      .   S
    Zr636  O642      2.83100      .   S
    N55    O642      7.07461      .   S
    Zr636  O643      2.80992      .   S
    N36    O643      6.99715      .   S
    Zr636  O644      2.80009      .   S
    N85    O644      6.96699      .   S
    Zr645  O646      2.52714      .   S
    N75    O646      7.36357      .   S
    Zr645  O647      2.48868      .   S
    N94    O647      7.27429      .   S
    Zr645  O648      2.50472      .   S
    N25    O648      7.30887      .   S
    Zr645  O649      2.53576      .   S
    N65    O649      7.37012      .   S
    Zr645  O650      2.81661      .   S
    N75    O650      7.04012      .   S
    Zr645  O651      2.79201      .   S
    N94    O651      6.93655      .   S
    Zr645  O652      2.80250      .   S
    N25    O652      6.97714      .   S
    Zr645  O653      2.82558      .   S
    N65    O653      7.04796      .   S
    Zr654  O655      2.55116      .   S
    N44    O655      7.42187      .   S
    Zr654  O656      2.51310      .   S
    N23    O656      7.32488      .   S
    Zr654  O657      2.51083      .   S
    N81    O657      7.32625      .   S
    Zr654  O658      2.53675      .   S
    N85    O658      7.39229      .   S
    Zr654  O659      2.83950      .   S
    N44    O659      7.10063      .   S
    Zr654  O660      2.80796      .   S
    N81    O660      6.99514      .   S
    Zr654  O661      2.82839      .   S
    N85    O661      7.06713      .   S
    Zr654  O662      2.80952      .   S
    N23    O662      6.99515      .   S
    Zr663  O664      2.50753      .   S
    N11    O664      7.32293      .   S
    Zr663  O665      2.53193      .   S
    N64    O665      7.37916      .   S
    Zr663  O666      2.52530      .   S
    N62    O666      7.36413      .   S
    Zr663  O667      2.48106      .   S
    N9     O667      7.26062      .   S
    Zr663  O668      2.80946      .   S
    N11    O668      6.98742      .   S
    Zr663  O669      2.82320      .   S
    N64    O669      7.05392      .   S
    Zr663  O670      2.81983      .   S
    N62    O670      7.03624      .   S
    Zr663  O671      2.78520      .   S
    N9     O671      6.92171      .   S
    Zr672  O673      2.53928      .   S
    N21    O673      7.39585      .   S
    Zr672  O674      2.53962      .   S
    N56    O674      7.39728      .   S
    Zr672  O675      2.54402      .   S
    N71    O675      7.41532      .   S
    Zr672  O676      2.54630      .   S
    N94    O676      7.41699      .   S
    Zr672  O677      2.82926      .   S
    N21    O677      7.07259      .   S
    Zr672  O678      2.82962      .   S
    N56    O678      7.07368      .   S
    Zr672  O679      2.83880      .   S
    N71    O679      7.08776      .   S
    Zr672  O680      2.83903      .   S
    N94    O680      7.09127      .   S
    Zr681  O682      2.48187      .   S
    N75    O682      7.26963      .   S
    Zr681  O683      2.57457      .   S
    N32    O683      7.47051      .   S
    Zr681  O684      2.51827      .   S
    N91    O684      7.34229      .   S
    Zr681  O685      2.51916      .   S
    N34    O685      7.35457      .   S
    Zr681  O686      2.78797      .   S
    N75    O686      6.92854      .   S
    Zr681  O687      2.85736      .   S
    N32    O687      7.15580      .   S
    Zr681  O688      2.81565      .   S
    N91    O688      7.01167      .   S
    Zr681  O689      2.81437      .   S
    N34    O689      7.02511      .   S
    Zr690  O691      2.50002  1_565   S
    N21    O691      7.30126      .   S
    Zr690  O692      2.50458      .   S
    N55    O692      7.31175      .   S
    Zr690  O693      2.50020      .   S
    N81    O693      7.31025      .   S
    Zr690  O694      2.55153  1_565   S
    N25    O694      7.41609      .   S
    Zr690  O695      2.80083  1_565   S
    N21    O695      6.96677      .   S
    Zr690  O696      2.80571      .   S
    N55    O696      6.97699      .   S
    Zr690  O697      2.79907      .   S
    N81    O697      6.97631      .   S
    Zr690  O698      2.83712  1_565   S
    N25    O698      7.09778      .   S
    Zr699  O700      2.54029  1_545   S
    N9     O700      7.39755      .   S
    Zr699  O701      2.52760  1_545   S
    N36    O701      7.37442      .   S
    Zr699  O702      2.53796      .   S
    N91    O702      7.39102      .   S
    Zr699  O703      2.51615      .   S
    N65    O703      7.34771      .   S
    Zr699  O704      2.83036  1_545   S
    N9     O704      7.07426      .   S
    Zr699  O705      2.82324  1_545   S
    N36    O705      7.04512      .   S
    Zr699  O706      2.83104      .   S
    N91    O706      7.06518      .   S
    Zr699  O707      2.81349      .   S
    N65    O707      7.01631      .   S
    Zr708  O709      2.53552      .   S
    N73    O709      7.37883      .   S
    Zr708  O710      2.48622      .   S
    N93    O710      7.27090      .   S
    Zr708  O711      2.51097      .   S
    N67    O711      7.32426      .   S
    Zr708  O712      2.48915      .   S
    N26    O712      7.28344      .   S
    Zr708  O713      2.82794      .   S
    N73    O713      7.05343      .   S
    Zr708  O714      2.78924      .   S
    N93    O714      6.93337      .   S
    Zr708  O715      2.80696      .   S
    N67    O715      6.99470      .   S
    Zr708  O716      2.79285      .   S
    N26    O716      6.94457      .   S
    Zr717  O718      2.54879      .   S
    N59    O718      7.41138      .   S
    Zr717  O719      2.49685      .   S
    N10    O719      7.30016      .   S
    Zr717  O720      2.54154      .   S
    N83    O720      7.39069      .   S
    Zr717  O721      2.49478      .   S
    N37    O721      7.28755      .   S
    Zr717  O722      2.83694      .   S
    N59    O722      7.09067      .   S
    Zr717  O723      2.80107      .   S
    N10    O723      6.96221      .   S
    Zr717  O724      2.82772      .   S
    N83    O724      7.07134      .   S
    Zr717  O725      2.79396      .   S
    N37    O725      6.95368      .   S
    Zr726  O727      2.54529      .   S
    N41    O727      7.40582      .   S
    Zr726  O728      2.49527      .   S
    N83    O728      7.29697      .   S
    Zr726  O729      2.54635      .   S
    N93    O729      7.39948      .   S
    Zr726  O730      2.47593      .   S
    N69    O730      7.25136      .   S
    Zr726  O731      2.83549      .   S
    N41    O731      7.08316      .   S
    Zr726  O732      2.79982      .   S
    N83    O732      6.95825      .   S
    Zr726  O733      2.83117      .   S
    N93    O733      7.08168      .   S
    Zr726  O734      2.78091      .   S
    N69    O734      6.91104      .   S
    Zr735  O736      2.47143      .   S
    N57    O736      7.24502      .   S
    Zr735  O737      2.54078      .   S
    N73    O737      7.40212      .   S
    Zr735  O738      2.56010      .   S
    N10    O738      7.43733      .   S
    Zr735  O739      2.52173      .   S
    N0     O739      7.35248      .   S
    Zr735  O740      2.84481      .   S
    N10    O740      7.12032      .   S
    Zr735  O741      2.83350      .   S
    N73    O741      7.07594      .   S
    Zr735  O742      2.78016      .   S
    N57    O742      6.90113      .   S
    Zr735  O743      2.81731      .   S
    N0     O743      7.02338      .   S
    Zr744  O745      2.52841      .   S
    N14    O745      7.36336      .   S
    Zr744  O746      2.50307      .   S
    N33    O746      7.30286      .   S
    Zr744  O747      2.54019      .   S
    N87    O747      7.38971      .   S
    Zr744  O748      2.50256      .   S
    N51    O748      7.30328      .   S
    Zr744  O749      2.82305      .   S
    N14    O749      7.03587      .   S
    Zr744  O750      2.79969      .   S
    N33    O750      6.97208      .   S
    Zr744  O751      2.82707      .   S
    N87    O751      7.06911      .   S
    Zr744  O752      2.80142      .   S
    N51    O752      6.97083      .   S
    Zr753  O754      2.54789      .   S
    N22    O754      7.41402      .   S
    Zr753  O755      2.48003      .   S
    N53    O755      7.25834      .   S
    Zr753  O756      2.49782      .   S
    N77    O756      7.30147      .   S
    Zr753  O757      2.50406      .   S
    N2     O757      7.30505      .   S
    Zr753  O758      2.83768      .   S
    N22    O758      7.09152      .   S
    Zr753  O759      2.80179      .   S
    N77    O759      6.96355      .   S
    Zr753  O760      2.79995      .   S
    N2     O760      6.97519      .   S
    Zr753  O761      2.78367      .   S
    N53    O761      6.91940      .   S
    Zr762  O763      2.50273  1_554   S
    N41    O763      7.31265      .   S
    Zr762  O764      2.50355      .   S
    N79    O764      7.31768      .   S
    Zr762  O765      2.48587      .   S
    N87    O765      7.27705      .   S
    Zr762  O766      2.54008  1_554   S
    N26    O766      7.39999      .   S
    Zr762  O767      2.80372  1_554   S
    N41    O767      6.97767      .   S
    Zr762  O768      2.80668      .   S
    N79    O768      6.98041      .   S
    Zr762  O769      2.79128      .   S
    N87    O769      6.93675      .   S
    Zr762  O770      2.83136  1_554   S
    N26    O770      7.07513      .   S
    Zr771  O772      2.55560  1_554   S
    N57    O772      7.43223      .   S
    Zr771  O773      2.52501      .   S
    N14    O773      7.36835      .   S
    Zr771  O774      2.52149  1_554   S
    N67    O774      7.36415      .   S
    Zr771  O775      2.53780      .   S
    N6     O775      7.39587      .   S
    Zr771  O776      2.83129      .   S
    N6     O776      7.06921      .   S
    Zr771  O777      2.84257  1_554   S
    N57    O777      7.11225      .   S
    Zr771  O778      2.82196      .   S
    N14    O778      7.03781      .   S
    Zr771  O779      2.81946  1_554   S
    N67    O779      7.03251      .   S
    Zr780  O781      2.48386      .   S
    N59    O781      7.27336      .   S
    Zr780  O782      2.55611  1_556   S
    N18    O782      7.43008      .   S
    Zr780  O783      2.54452  1_556   S
    N2     O783      7.40565      .   S
    Zr780  O784      2.53960      .   S
    N69    O784      7.39390      .   S
    Zr780  O785      2.78990      .   S
    N59    O785      6.93253      .   S
    Zr780  O786      2.83406  1_556   S
    N2     O786      7.08359      .   S
    Zr780  O787      2.83075      .   S
    N69    O787      7.06967      .   S
    Zr780  O788      2.84169  1_556   S
    N18    O788      7.11152      .   S
    Zr789  O790      2.55957      .   S
    N77    O790      7.44391      .   S
    Zr789  O791      2.53651      .   S
    N89    O791      7.39074      .   S
    Zr789  O792      2.53242  1_554   S
    N37    O792      7.38363      .   S
    Zr789  O793      2.51591  1_554   S
    N0     O793      7.35348      .   S
    Zr789  O794      2.84802      .   S
    N77    O794      7.12306      .   S
    Zr789  O795      2.82874      .   S
    N89    O795      7.06534      .   S
    Zr789  O796      2.82604  1_554   S
    N37    O796      7.05644      .   S
    Zr789  O797      2.81631  1_554   S
    N0     O797      7.01880      .   S
    Zr798  O799      2.50360      .   S
    N22    O799      7.31835      .   S
    Zr798  O800      2.47531      .   S
    N18    O800      7.24869      .   S
    Zr798  O801      2.56430      .   S
    N79    O801      7.45172      .   S
    Zr798  O802      2.52557      .   S
    N51    O802      7.35710      .   S
    Zr798  O803      2.80863      .   S
    N22    O803      6.97959      .   S
    Zr798  O804      2.78023      .   S
    N18    O804      6.90827      .   S
    Zr798  O805      2.85220      .   S
    N79    O805      7.13197      .   S
    Zr798  O806      2.81428      .   S
    N51    O806      7.03436      .   S
    Zr807  O808      2.53746      .   S
    N53    O808      7.38883      .   S
    Zr807  O809      2.54145      .   S
    N33    O809      7.39989      .   S
    Zr807  O810      2.50850      .   S
    N89    O810      7.32391      .   S
    Zr807  O811      2.51030      .   S
    N6     O811      7.32074      .   S
    Zr807  O812      2.82567      .   S
    N53    O812      7.06654      .   S
    Zr807  O813      2.83287      .   S
    N33    O813      7.07544      .   S
    Zr807  O814      2.80944      .   S
    N89    O814      6.98974      .   S
    Zr807  O815      2.80668      .   S
    N6     O815      6.99070      .   S
