# CIF file generated by openbabel 2.4.90, see http://openbabel.sf.net
data_I
_chemical_name_common ''
_cell_length_a 71.5169
_cell_length_b 71.4927
_cell_length_c 71.6087
_cell_angle_alpha 89.8315
_cell_angle_beta 90.1248
_cell_angle_gamma 89.8689
_space_group_name_H-M_alt 'P 1'
_space_group_name_Hall 'P 1'
loop_
    _symmetry_equiv_pos_as_xyz
    x,y,z
loop_
    _atom_site_label
    _atom_site_type_symbol
    _atom_site_fract_x
    _atom_site_fract_y
    _atom_site_fract_z
    _atom_site_occupancy
    Zr0     Zr   0.32576   0.35797   0.32496   1.000
    Zr1     Zr   0.35820   0.32388   0.32234   1.000
    Zr2     Zr   0.32584   0.32408   0.35797   1.000
    Zr3     Zr   0.33013   0.32448   0.32959   1.000
    Zr4     Zr   0.34643   0.33873   0.34425   1.000
    Zr5     Zr   0.32215   0.85570   0.82365   1.000
    Zr6     Zr   0.35713   0.82471   0.82492   1.000
    Zr7     Zr   0.32168   0.82459   0.85831   1.000
    Zr8     Zr   0.32894   0.82300   0.83041   1.000
    Zr9     Zr   0.34281   0.83932   0.84515   1.000
    Zr10    Zr   0.82435   0.35915   0.82355   1.000
    Zr11    Zr   0.85774   0.32582   0.82325   1.000
    Zr12    Zr   0.82293   0.32620   0.85700   1.000
    Zr13    Zr   0.82950   0.32578   0.82879   1.000
    Zr14    Zr   0.84449   0.34069   0.84404   1.000
    Zr15    Zr   0.82402   0.85910   0.32435   1.000
    Zr16    Zr   0.85735   0.82586   0.32389   1.000
    Zr17    Zr   0.82190   0.82579   0.35714   1.000
    Zr18    Zr   0.82907   0.82571   0.32905   1.000
    Zr19    Zr   0.84387   0.84026   0.34479   1.000
    Zr20    Zr   0.67318   0.64301   0.32485   1.000
    Zr21    Zr   0.64129   0.67731   0.32397   1.000
    Zr22    Zr   0.67494   0.67549   0.35888   1.000
    Zr23    Zr   0.66962   0.67634   0.33075   1.000
    Zr24    Zr   0.65363   0.66181   0.34538   1.000
    Zr25    Zr   0.67632   0.14525   0.82275   1.000
    Zr26    Zr   0.63963   0.17480   0.82554   1.000
    Zr27    Zr   0.67807   0.18063   0.85406   1.000
    Zr28    Zr   0.66801   0.17836   0.82681   1.000
    Zr29    Zr   0.65773   0.16273   0.84510   1.000
    Zr30    Zr   0.17684   0.64261   0.82340   1.000
    Zr31    Zr   0.14325   0.67552   0.82321   1.000
    Zr32    Zr   0.17814   0.67469   0.85720   1.000
    Zr33    Zr   0.17147   0.67576   0.82897   1.000
    Zr34    Zr   0.15655   0.66054   0.84396   1.000
    Zr35    Zr   0.17496   0.14409   0.31995   1.000
    Zr36    Zr   0.13598   0.16806   0.32957   1.000
    Zr37    Zr   0.17751   0.17754   0.35270   1.000
    Zr38    Zr   0.16340   0.17553   0.32695   1.000
    Zr39    Zr   0.15833   0.15841   0.34600   1.000
    Zr40    Zr   0.67451   0.35608   0.67508   1.000
    Zr41    Zr   0.64164   0.32215   0.67545   1.000
    Zr42    Zr   0.67628   0.32274   0.64200   1.000
    Zr43    Zr   0.66989   0.32261   0.67025   1.000
    Zr44    Zr   0.65468   0.33731   0.65476   1.000
    Zr45    Zr   0.67665   0.85802   0.17712   1.000
    Zr46    Zr   0.64236   0.82605   0.17828   1.000
    Zr47    Zr   0.67516   0.82621   0.14255   1.000
    Zr48    Zr   0.67037   0.82510   0.17091   1.000
    Zr49    Zr   0.65506   0.84108   0.15695   1.000
    Zr50    Zr   0.17489   0.35683   0.17466   1.000
    Zr51    Zr   0.14142   0.32390   0.17613   1.000
    Zr52    Zr   0.17464   0.32359   0.14119   1.000
    Zr53    Zr   0.16965   0.32357   0.16945   1.000
    Zr54    Zr   0.15417   0.33861   0.15462   1.000
    Zr55    Zr   0.17648   0.85716   0.67396   1.000
    Zr56    Zr   0.14287   0.82401   0.67616   1.000
    Zr57    Zr   0.17681   0.82324   0.64178   1.000
    Zr58    Zr   0.17092   0.82377   0.67030   1.000
    Zr59    Zr   0.15555   0.83829   0.65484   1.000
    Zr60    Zr   0.32106   0.64553   0.67707   1.000
    Zr61    Zr   0.35858   0.67404   0.67704   1.000
    Zr62    Zr   0.32201   0.68092   0.64595   1.000
    Zr63    Zr   0.33056   0.67839   0.67379   1.000
    Zr64    Zr   0.34169   0.66264   0.65625   1.000
    Zr65    Zr   0.32472   0.14302   0.17326   1.000
    Zr66    Zr   0.35715   0.17725   0.17366   1.000
    Zr67    Zr   0.32180   0.17702   0.14075   1.000
    Zr68    Zr   0.32874   0.17658   0.16885   1.000
    Zr69    Zr   0.34384   0.16252   0.15285   1.000
    Zr70    Zr   0.82003   0.64757   0.18108   1.000
    Zr71    Zr   0.85857   0.67394   0.17743   1.000
    Zr72    Zr   0.82222   0.67780   0.14534   1.000
    Zr73    Zr   0.83069   0.67926   0.17316   1.000
    Zr74    Zr   0.84126   0.66079   0.15819   1.000
    Zr75    Zr   0.82424   0.14396   0.67460   1.000
    Zr76    Zr   0.86080   0.17274   0.66888   1.000
    Zr77    Zr   0.81788   0.18251   0.64868   1.000
    Zr78    Zr   0.83331   0.17688   0.67309   1.000
    Zr79    Zr   0.83908   0.16392   0.65125   1.000
    Zr80    Zr   0.35909   0.32402   0.67617   1.000
    Zr81    Zr   0.32592   0.35702   0.67839   1.000
    Zr82    Zr   0.32570   0.32374   0.64307   1.000
    Zr83    Zr   0.32569   0.32883   0.67140   1.000
    Zr84    Zr   0.34021   0.34457   0.65653   1.000
    Zr85    Zr   0.35798   0.82696   0.17645   1.000
    Zr86    Zr   0.32335   0.85874   0.17508   1.000
    Zr87    Zr   0.32576   0.82295   0.14255   1.000
    Zr88    Zr   0.32460   0.83028   0.17041   1.000
    Zr89    Zr   0.33903   0.84544   0.15486   1.000
    Zr90    Zr   0.85823   0.32495   0.17841   1.000
    Zr91    Zr   0.82573   0.35889   0.17702   1.000
    Zr92    Zr   0.82651   0.32455   0.14316   1.000
    Zr93    Zr   0.82530   0.33035   0.17110   1.000
    Zr94    Zr   0.84130   0.34507   0.15662   1.000
    Zr95    Zr   0.85603   0.82366   0.67554   1.000
    Zr96    Zr   0.82373   0.85819   0.67369   1.000
    Zr97    Zr   0.82386   0.82270   0.64116   1.000
    Zr98    Zr   0.82304   0.82978   0.66920   1.000
    Zr99    Zr   0.83896   0.84386   0.65397   1.000
    Zr100   Zr   0.64460   0.67626   0.67372   1.000
    Zr101   Zr   0.67776   0.64275   0.67752   1.000
    Zr102   Zr   0.67684   0.67296   0.63967   1.000
    Zr103   Zr   0.67779   0.67022   0.66844   1.000
    Zr104   Zr   0.66235   0.65354   0.65559   1.000
    Zr105   Zr   0.64428   0.17437   0.17806   1.000
    Zr106   Zr   0.67714   0.14096   0.17714   1.000
    Zr107   Zr   0.67546   0.17512   0.14271   1.000
    Zr108   Zr   0.67720   0.16937   0.17073   1.000
    Zr109   Zr   0.66137   0.15428   0.15654   1.000
    Zr110   Zr   0.14386   0.67482   0.17634   1.000
    Zr111   Zr   0.17570   0.64005   0.17645   1.000
    Zr112   Zr   0.17700   0.67464   0.14278   1.000
    Zr113   Zr   0.17696   0.66850   0.17088   1.000
    Zr114   Zr   0.16128   0.65423   0.15560   1.000
    Zr115   Zr   0.14306   0.17697   0.67506   1.000
    Zr116   Zr   0.17420   0.14165   0.67783   1.000
    Zr117   Zr   0.17619   0.17396   0.64184   1.000
    Zr118   Zr   0.17602   0.16952   0.67036   1.000
    Zr119   Zr   0.16015   0.15457   0.65603   1.000
    Zr120   Zr   0.35659   0.67637   0.32507   1.000
    Zr121   Zr   0.32318   0.64291   0.32489   1.000
    Zr122   Zr   0.32405   0.67694   0.35892   1.000
    Zr123   Zr   0.32334   0.67106   0.33052   1.000
    Zr124   Zr   0.33862   0.65579   0.34538   1.000
    Zr125   Zr   0.35656   0.17728   0.82531   1.000
    Zr126   Zr   0.32398   0.14358   0.82535   1.000
    Zr127   Zr   0.32421   0.17869   0.85896   1.000
    Zr128   Zr   0.32339   0.17190   0.83084   1.000
    Zr129   Zr   0.33863   0.15715   0.84609   1.000
    Zr130   Zr   0.85541   0.67475   0.82140   1.000
    Zr131   Zr   0.82424   0.63983   0.82396   1.000
    Zr132   Zr   0.82456   0.67495   0.85712   1.000
    Zr133   Zr   0.82285   0.66839   0.82928   1.000
    Zr134   Zr   0.83965   0.65450   0.84379   1.000
    Zr135   Zr   0.85718   0.17662   0.32522   1.000
    Zr136   Zr   0.82622   0.14117   0.32320   1.000
    Zr137   Zr   0.82385   0.17431   0.35828   1.000
    Zr138   Zr   0.82421   0.16916   0.32987   1.000
    Zr139   Zr   0.84005   0.15453   0.34472   1.000
    Zr140   Zr   0.64454   0.32131   0.32293   1.000
    Zr141   Zr   0.67529   0.35661   0.32505   1.000
    Zr142   Zr   0.67435   0.32165   0.35898   1.000
    Zr143   Zr   0.67693   0.32840   0.33095   1.000
    Zr144   Zr   0.65976   0.34235   0.34472   1.000
    Zr145   Zr   0.64744   0.82044   0.82029   1.000
    Zr146   Zr   0.67544   0.85797   0.82457   1.000
    Zr147   Zr   0.67469   0.82314   0.85830   1.000
    Zr148   Zr   0.67862   0.82982   0.83028   1.000
    Zr149   Zr   0.65952   0.84252   0.84285   1.000
    Zr150   Zr   0.14337   0.32631   0.82474   1.000
    Zr151   Zr   0.17808   0.35792   0.82563   1.000
    Zr152   Zr   0.17523   0.32294   0.85916   1.000
    Zr153   Zr   0.17671   0.32955   0.83109   1.000
    Zr154   Zr   0.16213   0.34517   0.84602   1.000
    Zr155   Zr   0.14186   0.82310   0.32632   1.000
    Zr156   Zr   0.17314   0.85800   0.32296   1.000
    Zr157   Zr   0.17658   0.82459   0.35798   1.000
    Zr158   Zr   0.17507   0.82994   0.32963   1.000
    Zr159   Zr   0.16023   0.84477   0.34512   1.000
    Zr160   Zr   0.07633   0.99850   0.07729   1.000
    Zr161   Zr   0.10227   0.99837   0.10373   1.000
    Zr162   Zr   0.92092   0.00045   0.07663   1.000
    Zr163   Zr   0.89438   0.00083   0.10227   1.000
    Zr164   Zr   0.99894   0.07859   0.07649   1.000
    Zr165   Zr   0.99924   0.10479   0.10247   1.000
    Zr166   Zr   0.99811   0.92061   0.07741   1.000
    Zr167   Zr   0.99747   0.89468   0.10387   1.000
    Zr168   Zr   0.07773   0.99826   0.92143   1.000
    Zr169   Zr   0.10429   0.99753   0.89579   1.000
    Zr170   Zr   0.92326   0.00006   0.91925   1.000
    Zr171   Zr   0.89722   0.00018   0.89292   1.000
    Zr172   Zr   0.07846   0.07657   0.99892   1.000
    Zr173   Zr   0.10494   0.10235   0.99920   1.000
    Zr174   Zr   0.07620   0.91901   0.00081   1.000
    Zr175   Zr   0.10257   0.89296   0.00106   1.000
    Zr176   Zr   0.92252   0.07880   0.99718   1.000
    Zr177   Zr   0.89625   0.10490   0.99660   1.000
    Zr178   Zr   0.92122   0.92190   0.99825   1.000
    Zr179   Zr   0.89453   0.89630   0.99807   1.000
    Zr180   Zr   0.00104   0.07802   0.91997   1.000
    Zr181   Zr   0.00165   0.10410   0.89369   1.000
    Zr182   Zr   0.99972   0.92006   0.92155   1.000
    Zr183   Zr   0.99973   0.89383   0.89551   1.000
    Zr184   Zr   0.00158   0.42188   0.42250   1.000
    Zr185   Zr   0.00140   0.39597   0.39621   1.000
    Zr186   Zr   0.99986   0.57923   0.42378   1.000
    Zr187   Zr   0.99957   0.60547   0.39759   1.000
    Zr188   Zr   0.92162   0.50008   0.42279   1.000
    Zr189   Zr   0.89590   0.50041   0.39617   1.000
    Zr190   Zr   0.07822   0.50081   0.42164   1.000
    Zr191   Zr   0.10412   0.50146   0.39529   1.000
    Zr192   Zr   0.00134   0.42161   0.57666   1.000
    Zr193   Zr   0.00151   0.39505   0.60249   1.000
    Zr194   Zr   0.00068   0.57696   0.57796   1.000
    Zr195   Zr   0.00061   0.60287   0.60434   1.000
    Zr196   Zr   0.92141   0.42174   0.49940   1.000
    Zr197   Zr   0.89565   0.39525   0.49939   1.000
    Zr198   Zr   0.08064   0.42255   0.49922   1.000
    Zr199   Zr   0.10698   0.39648   0.49921   1.000
    Zr200   Zr   0.92174   0.57850   0.50053   1.000
    Zr201   Zr   0.89542   0.60458   0.50093   1.000
    Zr202   Zr   0.07896   0.57826   0.50078   1.000
    Zr203   Zr   0.10510   0.60442   0.50080   1.000
    Zr204   Zr   0.92227   0.49904   0.57785   1.000
    Zr205   Zr   0.89635   0.49887   0.60418   1.000
    Zr206   Zr   0.07966   0.49935   0.57817   1.000
    Zr207   Zr   0.10568   0.49918   0.60452   1.000
    Zr208   Zr   0.50037   0.92273   0.42229   1.000
    Zr209   Zr   0.50100   0.89666   0.39610   1.000
    Zr210   Zr   0.49847   0.07771   0.42146   1.000
    Zr211   Zr   0.49830   0.10431   0.39568   1.000
    Zr212   Zr   0.42082   0.99969   0.42119   1.000
    Zr213   Zr   0.39470   0.99941   0.39496   1.000
    Zr214   Zr   0.57816   0.00156   0.42257   1.000
    Zr215   Zr   0.60443   0.00166   0.39658   1.000
    Zr216   Zr   0.50002   0.92175   0.57848   1.000
    Zr217   Zr   0.50030   0.89534   0.60451   1.000
    Zr218   Zr   0.49772   0.07768   0.57987   1.000
    Zr219   Zr   0.49737   0.10424   0.60553   1.000
    Zr220   Zr   0.42226   0.92142   0.49943   1.000
    Zr221   Zr   0.39627   0.89512   0.49955   1.000
    Zr222   Zr   0.57809   0.92317   0.50106   1.000
    Zr223   Zr   0.60469   0.89732   0.50115   1.000
    Zr224   Zr   0.42040   0.07617   0.50008   1.000
    Zr225   Zr   0.39411   0.10232   0.49995   1.000
    Zr226   Zr   0.57676   0.07823   0.50106   1.000
    Zr227   Zr   0.60220   0.10507   0.50127   1.000
    Zr228   Zr   0.42157   0.99928   0.57912   1.000
    Zr229   Zr   0.39503   0.99858   0.60484   1.000
    Zr230   Zr   0.57663   0.00125   0.57906   1.000
    Zr231   Zr   0.60283   0.00114   0.60531   1.000
    Zr232   Zr   0.50000   0.42259   0.92220   1.000
    Zr233   Zr   0.49932   0.39609   0.89649   1.000
    Zr234   Zr   0.50169   0.57758   0.92062   1.000
    Zr235   Zr   0.50181   0.60366   0.89428   1.000
    Zr236   Zr   0.42245   0.50092   0.92290   1.000
    Zr237   Zr   0.39589   0.50130   0.89707   1.000
    Zr238   Zr   0.57864   0.49932   0.92220   1.000
    Zr239   Zr   0.60526   0.49874   0.89659   1.000
    Zr240   Zr   0.50058   0.42359   0.08077   1.000
    Zr241   Zr   0.50022   0.39760   0.10713   1.000
    Zr242   Zr   0.50169   0.57968   0.07877   1.000
    Zr243   Zr   0.50231   0.60568   0.10500   1.000
    Zr244   Zr   0.42179   0.42409   0.00205   1.000
    Zr245   Zr   0.39575   0.39787   0.00232   1.000
    Zr246   Zr   0.57680   0.42136   0.00159   1.000
    Zr247   Zr   0.60262   0.39473   0.00159   1.000
    Zr248   Zr   0.42508   0.58048   0.00015   1.000
    Zr249   Zr   0.39907   0.60691   0.99967   1.000
    Zr250   Zr   0.57864   0.57801   0.00040   1.000
    Zr251   Zr   0.60498   0.60401   0.99984   1.000
    Zr252   Zr   0.42281   0.50247   0.07919   1.000
    Zr253   Zr   0.39656   0.50321   0.10516   1.000
    Zr254   Zr   0.57996   0.49999   0.07797   1.000
    Zr255   Zr   0.60631   0.49998   0.10402   1.000
    O256    O    0.17410   0.84397   0.32630   1.000
    O257    O    0.16669   0.85139   0.33404   1.000
    O258    O    0.82522   0.15517   0.32654   1.000
    O259    O    0.83314   0.14785   0.33396   1.000
    O260    O    0.84321   0.82579   0.32647   1.000
    O261    O    0.85061   0.83306   0.33434   1.000
    O262    O    0.32326   0.65699   0.32771   1.000
    O263    O    0.33090   0.64935   0.33514   1.000
    O264    O    0.67611   0.34251   0.32800   1.000
    O265    O    0.66752   0.34948   0.33489   1.000
    O266    O    0.14969   0.17180   0.32826   1.000
    O267    O    0.32799   0.32428   0.34378   1.000
    O268    O    0.67228   0.67592   0.34481   1.000
    O269    O    0.33614   0.33141   0.35111   1.000
    O270    O    0.66429   0.66865   0.35213   1.000
    O271    O    0.16792   0.16798   0.34935   1.000
    O272    O    0.16817   0.16427   0.64894   1.000
    O273    O    0.17611   0.17174   0.65610   1.000
    O274    O    0.33296   0.33416   0.64980   1.000
    O275    O    0.32570   0.32629   0.65724   1.000
    O276    O    0.33185   0.67178   0.65110   1.000
    O277    O    0.82848   0.17322   0.64997   1.000
    O278    O    0.83135   0.85103   0.66383   1.000
    O279    O    0.64816   0.32973   0.66511   1.000
    O280    O    0.14921   0.83115   0.66550   1.000
    O281    O    0.67006   0.64815   0.66656   1.000
    O282    O    0.67777   0.65649   0.67298   1.000
    O283    O    0.84706   0.17481   0.67099   1.000
    O284    O    0.82339   0.84399   0.67145   1.000
    O285    O    0.65577   0.32238   0.67285   1.000
    O286    O    0.15690   0.82389   0.67323   1.000
    O287    O    0.34457   0.67622   0.67542   1.000
    O288    O    0.15736   0.67564   0.82609   1.000
    O289    O    0.14990   0.66803   0.83359   1.000
    O290    O    0.84362   0.32580   0.82602   1.000
    O291    O    0.85111   0.33326   0.83365   1.000
    O292    O    0.67703   0.84390   0.82743   1.000
    O293    O    0.66748   0.85025   0.83371   1.000
    O294    O    0.34304   0.82386   0.82767   1.000
    O295    O    0.34997   0.83202   0.83504   1.000
    O296    O    0.32369   0.15774   0.82810   1.000
    O297    O    0.33130   0.15037   0.83572   1.000
    O298    O    0.65382   0.17658   0.82618   1.000
    O299    O    0.17011   0.35155   0.83583   1.000
    O300    O    0.82371   0.67167   0.84320   1.000
    O301    O    0.17597   0.32625   0.84513   1.000
    O302    O    0.83211   0.66473   0.85046   1.000
    O303    O    0.66790   0.17168   0.84958   1.000
    O304    O    0.16440   0.33110   0.14791   1.000
    O305    O    0.17215   0.32358   0.15532   1.000
    O306    O    0.66511   0.83365   0.14975   1.000
    O307    O    0.67276   0.82566   0.15673   1.000
    O308    O    0.66842   0.16470   0.14962   1.000
    O309    O    0.67633   0.17225   0.15672   1.000
    O310    O    0.16914   0.66444   0.14919   1.000
    O311    O    0.17698   0.67157   0.15683   1.000
    O312    O    0.83391   0.33481   0.14989   1.000
    O313    O    0.82590   0.32745   0.15713   1.000
    O314    O    0.83174   0.66930   0.15177   1.000
    O315    O    0.35050   0.16989   0.16325   1.000
    O316    O    0.33119   0.85209   0.16497   1.000
    O317    O    0.34295   0.17692   0.17125   1.000
    O318    O    0.32398   0.84451   0.17274   1.000
    O319    O    0.84463   0.67660   0.17530   1.000
    O320    O    0.08930   0.99844   0.09051   1.000
    O321    O    0.90765   0.00064   0.08945   1.000
    O322    O    0.99909   0.09169   0.08948   1.000
    O323    O    0.99779   0.90765   0.09064   1.000
    O324    O    0.09101   0.99790   0.90861   1.000
    O325    O    0.91024   0.00012   0.90609   1.000
    O326    O    0.09170   0.08946   0.99906   1.000
    O327    O    0.08939   0.90598   0.00094   1.000
    O328    O    0.90939   0.09185   0.99689   1.000
    O329    O    0.90788   0.90910   0.99816   1.000
    O330    O    0.00134   0.09106   0.90683   1.000
    O331    O    0.99973   0.90695   0.90853   1.000
    O332    O    0.00149   0.40893   0.40936   1.000
    O333    O    0.99971   0.59235   0.41069   1.000
    O334    O    0.90876   0.50025   0.40948   1.000
    O335    O    0.09117   0.50114   0.40847   1.000
    O336    O    0.00142   0.40833   0.58958   1.000
    O337    O    0.00065   0.58992   0.59115   1.000
    O338    O    0.90853   0.40850   0.49940   1.000
    O339    O    0.09381   0.40952   0.49922   1.000
    O340    O    0.90858   0.59154   0.50073   1.000
    O341    O    0.09203   0.59134   0.50079   1.000
    O342    O    0.90931   0.49896   0.59102   1.000
    O343    O    0.09267   0.49927   0.59135   1.000
    O344    O    0.50068   0.90970   0.40920   1.000
    O345    O    0.49839   0.09101   0.40857   1.000
    O346    O    0.40776   0.99955   0.40808   1.000
    O347    O    0.59130   0.00161   0.40957   1.000
    O348    O    0.50016   0.90855   0.59150   1.000
    O349    O    0.49755   0.09096   0.59270   1.000
    O350    O    0.40927   0.90827   0.49949   1.000
    O351    O    0.59139   0.91025   0.50110   1.000
    O352    O    0.40726   0.08925   0.50002   1.000
    O353    O    0.58948   0.09165   0.50117   1.000
    O354    O    0.40830   0.99893   0.59198   1.000
    O355    O    0.58973   0.00120   0.59219   1.000
    O356    O    0.49966   0.40934   0.90935   1.000
    O357    O    0.50175   0.59062   0.90745   1.000
    O358    O    0.40917   0.50111   0.90999   1.000
    O359    O    0.59195   0.49903   0.90940   1.000
    O360    O    0.50040   0.41060   0.09395   1.000
    O361    O    0.50200   0.59268   0.09189   1.000
    O362    O    0.40877   0.41098   0.00219   1.000
    O363    O    0.58971   0.40805   0.00159   1.000
    O364    O    0.41208   0.59370   0.99991   1.000
    O365    O    0.59181   0.59101   0.00012   1.000
    O366    O    0.40969   0.50284   0.09218   1.000
    O367    O    0.59314   0.49999   0.09100   1.000
    N368    N    0.69488   0.59004   0.90952   1.000
    O369    O    0.75514   0.62732   0.88336   1.000
    O370    O    0.75512   0.61518   0.87193   1.000
    O371    O    0.64050   0.54926   0.91849   1.000
    O372    O    0.65270   0.54901   0.90676   1.000
    O373    O    0.64043   0.58129   0.95038   1.000
    O374    O    0.65249   0.59322   0.95015   1.000
    N375    N    0.40761   0.91007   0.30587   1.000
    O376    O    0.37037   0.88457   0.24522   1.000
    O377    O    0.38243   0.87353   0.24573   1.000
    O378    O    0.44938   0.91898   0.36030   1.000
    O379    O    0.44966   0.90702   0.34831   1.000
    O380    O    0.41693   0.95034   0.35981   1.000
    O381    O    0.40497   0.95019   0.34778   1.000
    N382    N    0.41123   0.69499   0.09413   1.000
    O383    O    0.38489   0.75593   0.13075   1.000
    O384    O    0.37368   0.75458   0.11896   1.000
    O385    O    0.42079   0.64153   0.05167   1.000
    O386    O    0.40887   0.65364   0.05144   1.000
    O387    O    0.45194   0.64115   0.08383   1.000
    O388    O    0.45218   0.65308   0.09584   1.000
    N389    N    0.19290   0.90620   0.09019   1.000
    O390    O    0.25435   0.86936   0.11634   1.000
    O391    O    0.25352   0.88170   0.12756   1.000
    O392    O    0.13835   0.94772   0.08118   1.000
    O393    O    0.15025   0.94767   0.09329   1.000
    O394    O    0.13829   0.91526   0.05006   1.000
    O395    O    0.15038   0.90332   0.05019   1.000
    N396    N    0.90933   0.40944   0.30734   1.000
    O397    O    0.87236   0.38401   0.24691   1.000
    O398    O    0.88371   0.37226   0.24744   1.000
    O399    O    0.95083   0.41843   0.36132   1.000
    O400    O    0.95077   0.40655   0.34927   1.000
    O401    O    0.91817   0.45017   0.36138   1.000
    O402    O    0.90637   0.45028   0.34919   1.000
    N403    N    0.90915   0.19418   0.09168   1.000
    O404    O    0.88383   0.25484   0.13015   1.000
    O405    O    0.87281   0.25471   0.11793   1.000
    O406    O    0.91839   0.14028   0.04903   1.000
    O407    O    0.90635   0.15225   0.04876   1.000
    O408    O    0.94953   0.14019   0.08140   1.000
    O409    O    0.94964   0.15221   0.09330   1.000
    N410    N    0.69502   0.40824   0.09145   1.000
    O411    O    0.75601   0.37143   0.11745   1.000
    O412    O    0.75576   0.38323   0.12920   1.000
    O413    O    0.64118   0.44949   0.08213   1.000
    O414    O    0.65327   0.44946   0.09404   1.000
    O415    O    0.63976   0.41740   0.05103   1.000
    O416    O    0.65157   0.40518   0.05102   1.000
    N417    N    0.90859   0.90852   0.80457   1.000
    O418    O    0.87106   0.88321   0.74382   1.000
    O419    O    0.88233   0.87126   0.74450   1.000
    O420    O    0.94966   0.91704   0.85927   1.000
    O421    O    0.94967   0.90501   0.84736   1.000
    O422    O    0.91851   0.94966   0.85820   1.000
    O423    O    0.90659   0.94971   0.84612   1.000
    N424    N    0.90899   0.69271   0.59235   1.000
    O425    O    0.88254   0.75330   0.62918   1.000
    O426    O    0.87130   0.75304   0.61728   1.000
    O427    O    0.91806   0.63927   0.55101   1.000
    O428    O    0.90602   0.65124   0.55121   1.000
    O429    O    0.95027   0.63862   0.58252   1.000
    O430    O    0.95026   0.65049   0.59460   1.000
    N431    N    0.69319   0.90898   0.59089   1.000
    O432    O    0.75385   0.87085   0.61603   1.000
    O433    O    0.75379   0.88312   0.62726   1.000
    O434    O    0.63867   0.95058   0.58231   1.000
    O435    O    0.65065   0.95054   0.59435   1.000
    O436    O    0.63930   0.91875   0.55056   1.000
    O437    O    0.65149   0.90690   0.55063   1.000
    N438    N    0.59251   0.59240   0.80590   1.000
    O439    O    0.63005   0.61814   0.74618   1.000
    O440    O    0.61850   0.62974   0.74484   1.000
    O441    O    0.55164   0.58234   0.85948   1.000
    O442    O    0.55171   0.59429   0.84741   1.000
    O443    O    0.58302   0.55039   0.86018   1.000
    O444    O    0.59522   0.55014   0.84844   1.000
    N445    N    0.59250   0.80520   0.58917   1.000
    O446    O    0.61854   0.74494   0.62609   1.000
    O447    O    0.62971   0.74372   0.61424   1.000
    O448    O    0.58273   0.86031   0.54963   1.000
    O449    O    0.59491   0.84846   0.54967   1.000
    O450    O    0.55086   0.85980   0.58116   1.000
    O451    O    0.55097   0.84769   0.59308   1.000
    N452    N    0.80695   0.58948   0.59249   1.000
    O453    O    0.74667   0.62634   0.61688   1.000
    O454    O    0.74715   0.61607   0.63007   1.000
    O455    O    0.86083   0.54883   0.58254   1.000
    O456    O    0.84894   0.54876   0.59460   1.000
    O457    O    0.86062   0.58129   0.55107   1.000
    O458    O    0.84855   0.59323   0.55125   1.000
    N459    N    0.59182   0.09098   0.30685   1.000
    O460    O    0.62975   0.11618   0.24683   1.000
    O461    O    0.61827   0.12775   0.24717   1.000
    O462    O    0.54971   0.08172   0.36043   1.000
    O463    O    0.54962   0.09389   0.34858   1.000
    O464    O    0.58230   0.05078   0.36092   1.000
    O465    O    0.59432   0.05084   0.34900   1.000
    N466    N    0.58990   0.30559   0.09397   1.000
    O467    O    0.61685   0.24474   0.13115   1.000
    O468    O    0.62768   0.24501   0.11887   1.000
    O469    O    0.58069   0.35978   0.05239   1.000
    O470    O    0.59252   0.34757   0.05237   1.000
    O471    O    0.54973   0.36069   0.08480   1.000
    O472    O    0.54958   0.34876   0.09687   1.000
    N473    N    0.80627   0.09186   0.08932   1.000
    O474    O    0.74564   0.12846   0.11615   1.000
    O475    O    0.74620   0.11672   0.12808   1.000
    O476    O    0.85994   0.05077   0.08022   1.000
    O477    O    0.84777   0.05097   0.09196   1.000
    O478    O    0.86066   0.08263   0.04780   1.000
    O479    O    0.84863   0.09460   0.04752   1.000
    N480    N    0.09053   0.59197   0.30637   1.000
    O481    O    0.12812   0.61631   0.24595   1.000
    O482    O    0.11700   0.62834   0.24597   1.000
    O483    O    0.04979   0.58301   0.36130   1.000
    O484    O    0.04963   0.59505   0.34931   1.000
    O485    O    0.08174   0.55106   0.36032   1.000
    O486    O    0.09361   0.55137   0.34825   1.000
    N487    N    0.09090   0.80447   0.09240   1.000
    O488    O    0.11753   0.74441   0.12945   1.000
    O489    O    0.12909   0.74431   0.11785   1.000
    O490    O    0.08091   0.85799   0.05115   1.000
    O491    O    0.09298   0.84603   0.05130   1.000
    O492    O    0.04904   0.85867   0.08238   1.000
    O493    O    0.04873   0.84677   0.09449   1.000
    N494    N    0.30776   0.59226   0.09158   1.000
    O495    O    0.24699   0.62833   0.11750   1.000
    O496    O    0.24653   0.61640   0.12915   1.000
    O497    O    0.36167   0.55194   0.08259   1.000
    O498    O    0.34963   0.55231   0.09448   1.000
    O499    O    0.36268   0.58377   0.05045   1.000
    O500    O    0.35076   0.59589   0.05022   1.000
    N501    N    0.09051   0.09197   0.80562   1.000
    O502    O    0.12734   0.11755   0.74623   1.000
    O503    O    0.11648   0.12978   0.74529   1.000
    O504    O    0.05032   0.08220   0.85916   1.000
    O505    O    0.05060   0.09414   0.84710   1.000
    O506    O    0.08155   0.04968   0.85971   1.000
    O507    O    0.09371   0.04936   0.84795   1.000
    N508    N    0.09412   0.30617   0.58967   1.000
    O509    O    0.11885   0.24599   0.62718   1.000
    O510    O    0.13040   0.24492   0.61567   1.000
    O511    O    0.08479   0.36060   0.54903   1.000
    O512    O    0.09686   0.34865   0.54907   1.000
    O513    O    0.05238   0.36025   0.58048   1.000
    O514    O    0.05245   0.34810   0.59234   1.000
    N515    N    0.30539   0.08887   0.59334   1.000
    O516    O    0.24529   0.12624   0.61827   1.000
    O517    O    0.24460   0.11508   0.63069   1.000
    O518    O    0.35966   0.04862   0.58361   1.000
    O519    O    0.34752   0.04835   0.59541   1.000
    O520    O    0.35917   0.07982   0.55125   1.000
    O521    O    0.34713   0.09181   0.55118   1.000
    N522    N    0.40930   0.59287   0.19481   1.000
    O523    O    0.37122   0.61806   0.25525   1.000
    O524    O    0.38284   0.62965   0.25525   1.000
    O525    O    0.45092   0.58369   0.14057   1.000
    O526    O    0.45122   0.59559   0.15260   1.000
    O527    O    0.41869   0.55226   0.14076   1.000
    O528    O    0.40666   0.55259   0.15267   1.000
    N529    N    0.40956   0.80596   0.40872   1.000
    O530    O    0.38322   0.74580   0.37192   1.000
    O531    O    0.37186   0.74592   0.38364   1.000
    O532    O    0.41854   0.85991   0.44953   1.000
    O533    O    0.40664   0.84785   0.44955   1.000
    O534    O    0.45045   0.86054   0.41814   1.000
    O535    O    0.45076   0.84859   0.40615   1.000
    N536    N    0.19336   0.59255   0.40943   1.000
    O537    O    0.25384   0.62995   0.38384   1.000
    O538    O    0.25353   0.61816   0.37212   1.000
    O539    O    0.13950   0.55117   0.41832   1.000
    O540    O    0.15139   0.55145   0.40626   1.000
    O541    O    0.13985   0.58275   0.45053   1.000
    O542    O    0.15184   0.59472   0.45052   1.000
    N543    N    0.40770   0.09117   0.69538   1.000
    O544    O    0.37080   0.11761   0.75566   1.000
    O545    O    0.38213   0.12934   0.75566   1.000
    O546    O    0.44822   0.08176   0.64141   1.000
    O547    O    0.44805   0.09390   0.65321   1.000
    O548    O    0.41719   0.04975   0.64107   1.000
    O549    O    0.40506   0.04942   0.65288   1.000
    N550    N    0.40848   0.30848   0.90950   1.000
    O551    O    0.38257   0.24776   0.87210   1.000
    O552    O    0.37131   0.24825   0.88381   1.000
    O553    O    0.41781   0.36256   0.95120   1.000
    O554    O    0.40588   0.35054   0.95133   1.000
    O555    O    0.44959   0.36198   0.91861   1.000
    O556    O    0.44927   0.34982   0.90683   1.000
    N557    N    0.19397   0.09120   0.90909   1.000
    O558    O    0.25437   0.12992   0.88386   1.000
    O559    O    0.25428   0.11780   0.87228   1.000
    O560    O    0.13968   0.04927   0.91787   1.000
    O561    O    0.15185   0.04894   0.90611   1.000
    O562    O    0.13998   0.08119   0.94948   1.000
    O563    O    0.15212   0.09300   0.94961   1.000
    N564    N    0.90829   0.58952   0.69303   1.000
    O565    O    0.87091   0.61497   0.75359   1.000
    O566    O    0.88177   0.62709   0.75265   1.000
    O567    O    0.94993   0.58055   0.63921   1.000
    O568    O    0.94991   0.59242   0.65129   1.000
    O569    O    0.91794   0.54882   0.63919   1.000
    O570    O    0.90607   0.54875   0.65127   1.000
    N571    N    0.90842   0.80522   0.90664   1.000
    O572    O    0.88205   0.74478   0.86883   1.000
    O573    O    0.87132   0.74486   0.88122   1.000
    O574    O    0.91745   0.85970   0.94796   1.000
    O575    O    0.90522   0.84796   0.94790   1.000
    O576    O    0.94943   0.85892   0.91665   1.000
    O577    O    0.94943   0.84689   0.90473   1.000
    N578    N    0.90947   0.09326   0.19278   1.000
    O579    O    0.87291   0.11785   0.25350   1.000
    O580    O    0.88369   0.13015   0.25418   1.000
    O581    O    0.94959   0.08335   0.13838   1.000
    O582    O    0.94972   0.09534   0.15031   1.000
    O583    O    0.91786   0.05142   0.13844   1.000
    O584    O    0.90570   0.05159   0.15021   1.000
    N585    N    0.90778   0.30646   0.40918   1.000
    O586    O    0.88216   0.24607   0.37227   1.000
    O587    O    0.87056   0.24524   0.38373   1.000
    O588    O    0.91728   0.36044   0.44968   1.000
    O589    O    0.90547   0.34830   0.44965   1.000
    O590    O    0.95009   0.36041   0.41848   1.000
    O591    O    0.95004   0.34853   0.40643   1.000
    N592    N    0.69359   0.09112   0.40801   1.000
    O593    O    0.75422   0.12754   0.38258   1.000
    O594    O    0.75503   0.11609   0.37047   1.000
    O595    O    0.63957   0.05094   0.41791   1.000
    O596    O    0.65162   0.05101   0.40601   1.000
    O597    O    0.63903   0.08217   0.44997   1.000
    O598    O    0.65069   0.09446   0.45008   1.000
    N599    N    0.59181   0.40894   0.19548   1.000
    O600    O    0.62853   0.38262   0.25561   1.000
    O601    O    0.61778   0.37038   0.25497   1.000
    O602    O    0.55081   0.41887   0.14181   1.000
    O603    O    0.55068   0.40697   0.15390   1.000
    O604    O    0.58322   0.44997   0.14056   1.000
    O605    O    0.59531   0.44997   0.15248   1.000
    N606    N    0.58913   0.19316   0.40818   1.000
    O607    O    0.61622   0.25284   0.37066   1.000
    O608    O    0.62664   0.25289   0.38316   1.000
    O609    O    0.58016   0.13934   0.45002   1.000
    O610    O    0.59183   0.15163   0.45013   1.000
    O611    O    0.54837   0.13916   0.41750   1.000
    O612    O    0.54831   0.15135   0.40568   1.000
    N613    N    0.80555   0.40743   0.40930   1.000
    O614    O    0.74479   0.36944   0.38392   1.000
    O615    O    0.74513   0.38150   0.37223   1.000
    O616    O    0.85974   0.44922   0.41861   1.000
    O617    O    0.84793   0.44939   0.40644   1.000
    O618    O    0.85965   0.41723   0.44985   1.000
    O619    O    0.84781   0.40512   0.44983   1.000
    N620    N    0.59052   0.90865   0.69462   1.000
    O621    O    0.62811   0.88295   0.75481   1.000
    O622    O    0.61839   0.86989   0.75335   1.000
    O623    O    0.54980   0.91784   0.64034   1.000
    O624    O    0.54996   0.90575   0.65226   1.000
    O625    O    0.58095   0.95033   0.64055   1.000
    O626    O    0.59295   0.95031   0.65257   1.000
    N627    N    0.59081   0.69355   0.90737   1.000
    O628    O    0.61836   0.75274   0.86902   1.000
    O629    O    0.62783   0.75369   0.88225   1.000
    O630    O    0.58204   0.63949   0.94929   1.000
    O631    O    0.59410   0.65139   0.94906   1.000
    O632    O    0.55082   0.63925   0.91666   1.000
    O633    O    0.55090   0.65121   0.90460   1.000
    N634    N    0.80624   0.90844   0.90765   1.000
    O635    O    0.74515   0.87081   0.88291   1.000
    O636    O    0.74543   0.88285   0.87128   1.000
    O637    O    0.86098   0.94972   0.91614   1.000
    O638    O    0.84905   0.94979   0.90407   1.000
    O639    O    0.86008   0.91786   0.94831   1.000
    O640    O    0.84785   0.90613   0.94821   1.000
    N641    N    0.09329   0.40951   0.69389   1.000
    O642    O    0.13087   0.38378   0.75493   1.000
    O643    O    0.11879   0.37280   0.75459   1.000
    O644    O    0.05184   0.41817   0.63912   1.000
    O645    O    0.05189   0.40601   0.65097   1.000
    O646    O    0.08381   0.44983   0.63969   1.000
    O647    O    0.09571   0.44974   0.65179   1.000
    N648    N    0.09134   0.19345   0.90656   1.000
    O649    O    0.11703   0.25494   0.87033   1.000
    O650    O    0.12812   0.25380   0.88229   1.000
    O651    O    0.08234   0.13881   0.94814   1.000
    O652    O    0.09448   0.15062   0.94826   1.000
    O653    O    0.05080   0.13943   0.91591   1.000
    O654    O    0.05109   0.15139   0.90387   1.000
    N655    N    0.30653   0.40816   0.91139   1.000
    O656    O    0.24585   0.37033   0.88525   1.000
    O657    O    0.24683   0.38239   0.87367   1.000
    O658    O    0.36069   0.45002   0.91982   1.000
    O659    O    0.34852   0.45019   0.90798   1.000
    O660    O    0.36037   0.41874   0.95215   1.000
    O661    O    0.34842   0.40673   0.95227   1.000
    N662    N    0.08815   0.90571   0.19344   1.000
    O663    O    0.12550   0.88118   0.25379   1.000
    O664    O    0.11460   0.86907   0.25493   1.000
    O665    O    0.04769   0.91577   0.13919   1.000
    O666    O    0.04744   0.90388   0.15131   1.000
    O667    O    0.07952   0.94757   0.13913   1.000
    O668    O    0.09142   0.94752   0.15123   1.000
    N669    N    0.09291   0.69405   0.41072   1.000
    O670    O    0.11796   0.75386   0.37341   1.000
    O671    O    0.13004   0.75441   0.38440   1.000
    O672    O    0.08327   0.63995   0.45121   1.000
    O673    O    0.09523   0.65195   0.45122   1.000
    O674    O    0.05093   0.64037   0.41992   1.000
    O675    O    0.05080   0.65240   0.40793   1.000
    N676    N    0.30588   0.90932   0.40659   1.000
    O677    O    0.24565   0.87220   0.38165   1.000
    O678    O    0.24446   0.88373   0.36957   1.000
    O679    O    0.35967   0.94990   0.41654   1.000
    O680    O    0.34769   0.94977   0.40454   1.000
    O681    O    0.36030   0.91801   0.44843   1.000
    O682    O    0.34839   0.90595   0.44850   1.000
    N683    N    0.08921   0.09185   0.19212   1.000
    O684    O    0.08009   0.04982   0.13834   1.000
    O685    O    0.09198   0.04975   0.15044   1.000
    O686    O    0.11317   0.12622   0.25524   1.000
    O687    O    0.12672   0.11786   0.25185   1.000
    O688    O    0.04860   0.08248   0.13806   1.000
    O689    O    0.04876   0.09449   0.14998   1.000
    N690    N    0.90710   0.90960   0.19331   1.000
    O691    O    0.91654   0.95043   0.13880   1.000
    O692    O    0.90438   0.95057   0.15057   1.000
    O693    O    0.88207   0.87282   0.25399   1.000
    O694    O    0.87048   0.88437   0.25419   1.000
    O695    O    0.94803   0.91792   0.13898   1.000
    O696    O    0.94777   0.90603   0.15111   1.000
    N697    N    0.09064   0.19305   0.09074   1.000
    O698    O    0.04944   0.13947   0.08097   1.000
    O699    O    0.04958   0.15150   0.09286   1.000
    O700    O    0.12752   0.25371   0.11631   1.000
    O701    O    0.11607   0.25383   0.12840   1.000
    O702    O    0.08184   0.13855   0.04936   1.000
    O703    O    0.09398   0.15036   0.04949   1.000
    N704    N    0.90813   0.80508   0.09110   1.000
    O705    O    0.94852   0.85915   0.08161   1.000
    O706    O    0.94821   0.84726   0.09373   1.000
    O707    O    0.87074   0.74552   0.11811   1.000
    O708    O    0.88330   0.74414   0.12915   1.000
    O709    O    0.91719   0.85971   0.04932   1.000
    O710    O    0.90496   0.84798   0.04924   1.000
    N711    N    0.19250   0.09028   0.09148   1.000
    O712    O    0.13918   0.08075   0.04982   1.000
    O713    O    0.15133   0.09255   0.04995   1.000
    O714    O    0.25353   0.11680   0.12778   1.000
    O715    O    0.25259   0.12865   0.11651   1.000
    O716    O    0.13826   0.04890   0.08175   1.000
    O717    O    0.15015   0.04881   0.09387   1.000
    N718    N    0.80557   0.90970   0.09034   1.000
    O719    O    0.85968   0.91859   0.04880   1.000
    O720    O    0.84746   0.90686   0.04869   1.000
    O721    O    0.74560   0.88390   0.12868   1.000
    O722    O    0.74510   0.87287   0.11664   1.000
    O723    O    0.85950   0.95053   0.08079   1.000
    O724    O    0.84732   0.95069   0.09254   1.000
    N725    N    0.40795   0.41023   0.19415   1.000
    O726    O    0.37141   0.38388   0.25446   1.000
    O727    O    0.38259   0.37195   0.25360   1.000
    O728    O    0.41805   0.45181   0.14042   1.000
    O729    O    0.40603   0.45214   0.15233   1.000
    O730    O    0.44972   0.41962   0.14119   1.000
    O731    O    0.44954   0.40773   0.15329   1.000
    N732    N    0.90721   0.69491   0.40937   1.000
    O733    O    0.86953   0.75558   0.38306   1.000
    O734    O    0.88177   0.75557   0.37161   1.000
    O735    O    0.94893   0.64085   0.41916   1.000
    O736    O    0.94883   0.65286   0.40715   1.000
    O737    O    0.91700   0.64059   0.45042   1.000
    O738    O    0.90496   0.65256   0.45059   1.000
    N739    N    0.59157   0.59201   0.19378   1.000
    O740    O    0.61658   0.62981   0.25418   1.000
    O741    O    0.62761   0.61781   0.25447   1.000
    O742    O    0.58307   0.55061   0.13950   1.000
    O743    O    0.59515   0.55061   0.15143   1.000
    O744    O    0.55119   0.58305   0.13992   1.000
    O745    O    0.55150   0.59496   0.15194   1.000
    N746    N    0.19511   0.40862   0.40770   1.000
    O747    O    0.25573   0.38309   0.37128   1.000
    O748    O    0.25581   0.37129   0.38270   1.000
    O749    O    0.14158   0.41821   0.44885   1.000
    O750    O    0.15365   0.40626   0.44880   1.000
    O751    O    0.14049   0.45009   0.41718   1.000
    O752    O    0.15234   0.45038   0.40509   1.000
    N753    N    0.40832   0.90857   0.69475   1.000
    O754    O    0.38246   0.87166   0.75516   1.000
    O755    O    0.37028   0.88246   0.75473   1.000
    O756    O    0.41754   0.94932   0.64070   1.000
    O757    O    0.40539   0.94897   0.65249   1.000
    O758    O    0.44957   0.91776   0.64034   1.000
    O759    O    0.44973   0.90566   0.65227   1.000
    N760    N    0.40876   0.19314   0.40837   1.000
    O761    O    0.37231   0.25390   0.38270   1.000
    O762    O    0.38346   0.25384   0.37036   1.000
    O763    O    0.44906   0.13909   0.41765   1.000
    O764    O    0.44897   0.15129   0.40585   1.000
    O765    O    0.41730   0.13841   0.44970   1.000
    O766    O    0.40523   0.15037   0.44965   1.000
    N767    N    0.69323   0.40904   0.90899   1.000
    O768    O    0.75402   0.38414   0.87108   1.000
    O769    O    0.75353   0.37268   0.88271   1.000
    O770    O    0.63875   0.41781   0.95069   1.000
    O771    O    0.65058   0.40561   0.95072   1.000
    O772    O    0.63959   0.44960   0.91839   1.000
    O773    O    0.65180   0.44934   0.90666   1.000
    N774    N    0.19238   0.90830   0.90928   1.000
    O775    O    0.25250   0.88227   0.87124   1.000
    O776    O    0.25234   0.87140   0.88331   1.000
    O777    O    0.13797   0.91641   0.95051   1.000
    O778    O    0.15006   0.90448   0.95063   1.000
    O779    O    0.13861   0.94869   0.91823   1.000
    O780    O    0.15079   0.94835   0.90648   1.000
    N781    N    0.40957   0.69455   0.90865   1.000
    O782    O    0.37069   0.75488   0.88333   1.000
    O783    O    0.38292   0.75490   0.87183   1.000
    O784    O    0.45112   0.63991   0.91726   1.000
    O785    O    0.45118   0.65186   0.90519   1.000
    O786    O    0.41999   0.64116   0.94976   1.000
    O787    O    0.40808   0.65328   0.94955   1.000
    N788    N    0.90943   0.40857   0.69324   1.000
    O789    O    0.88344   0.37225   0.75364   1.000
    O790    O    0.87183   0.38382   0.75377   1.000
    O791    O    0.91853   0.44921   0.63926   1.000
    O792    O    0.90667   0.44911   0.65134   1.000
    O793    O    0.95076   0.41767   0.63869   1.000
    O794    O    0.95085   0.40548   0.65051   1.000
    N795    N    0.90862   0.19445   0.90669   1.000
    O796    O    0.87067   0.25549   0.88157   1.000
    O797    O    0.88269   0.25534   0.86994   1.000
    O798    O    0.95031   0.14003   0.91595   1.000
    O799    O    0.95058   0.15200   0.90391   1.000
    O800    O    0.91827   0.14037   0.94739   1.000
    O801    O    0.90624   0.15234   0.94712   1.000
    N802    N    0.69318   0.91082   0.40865   1.000
    O803    O    0.75367   0.88491   0.37113   1.000
    O804    O    0.75293   0.87331   0.38254   1.000
    O805    O    0.63938   0.91973   0.45033   1.000
    O806    O    0.65158   0.90789   0.45040   1.000
    O807    O    0.63942   0.95166   0.41833   1.000
    O808    O    0.65148   0.95169   0.40643   1.000
    N809    N    0.80583   0.59123   0.40806   1.000
    O810    O    0.74433   0.61698   0.37123   1.000
    O811    O    0.74493   0.62825   0.38307   1.000
    O812    O    0.86011   0.58219   0.44972   1.000
    O813    O    0.84805   0.59414   0.44988   1.000
    O814    O    0.85998   0.55027   0.41800   1.000
    O815    O    0.84819   0.55046   0.40580   1.000
    N816    N    0.59170   0.80710   0.40974   1.000
    O817    O    0.62839   0.74617   0.38402   1.000
    O818    O    0.61686   0.74679   0.37190   1.000
    O819    O    0.55066   0.86118   0.41864   1.000
    O820    O    0.55097   0.84924   0.40664   1.000
    O821    O    0.58228   0.86145   0.45080   1.000
    O822    O    0.59447   0.84962   0.45084   1.000
    N823    N    0.59001   0.09168   0.69519   1.000
    O824    O    0.61512   0.12833   0.75576   1.000
    O825    O    0.62785   0.11807   0.75467   1.000
    O826    O    0.58063   0.05100   0.64086   1.000
    O827    O    0.59265   0.05095   0.65286   1.000
    O828    O    0.54850   0.08223   0.64134   1.000
    O829    O    0.54838   0.09438   0.65312   1.000
    N830    N    0.80648   0.09239   0.90693   1.000
    O831    O    0.74607   0.11899   0.86984   1.000
    O832    O    0.74663   0.13130   0.88068   1.000
    O833    O    0.86079   0.08293   0.94746   1.000
    O834    O    0.84874   0.09489   0.94719   1.000
    O835    O    0.86113   0.05083   0.91570   1.000
    O836    O    0.84920   0.05089   0.90363   1.000
    N837    N    0.58964   0.30581   0.90974   1.000
    O838    O    0.62827   0.24723   0.88225   1.000
    O839    O    0.61496   0.24512   0.87245   1.000
    O840    O    0.54928   0.36036   0.91868   1.000
    O841    O    0.54900   0.34821   0.90690   1.000
    O842    O    0.58050   0.35987   0.95112   1.000
    O843    O    0.59234   0.34768   0.95114   1.000
    N844    N    0.09219   0.59039   0.69351   1.000
    O845    O    0.11798   0.62803   0.75363   1.000
    O846    O    0.12967   0.61659   0.75373   1.000
    O847    O    0.08325   0.54939   0.63961   1.000
    O848    O    0.09516   0.54933   0.65170   1.000
    O849    O    0.05101   0.58097   0.63947   1.000
    O850    O    0.05095   0.59284   0.65155   1.000
    N851    N    0.30798   0.59143   0.90868   1.000
    O852    O    0.24726   0.61691   0.87078   1.000
    O853    O    0.24770   0.62809   0.88254   1.000
    O854    O    0.36273   0.58326   0.94992   1.000
    O855    O    0.35082   0.59538   0.94971   1.000
    O856    O    0.36162   0.55079   0.91851   1.000
    O857    O    0.34944   0.55097   0.90668   1.000
    N858    N    0.09173   0.80432   0.90922   1.000
    O859    O    0.12995   0.74425   0.88302   1.000
    O860    O    0.11790   0.74457   0.87132   1.000
    O861    O    0.05021   0.85839   0.91813   1.000
    O862    O    0.05021   0.84637   0.90620   1.000
    O863    O    0.08142   0.85788   0.95043   1.000
    O864    O    0.09348   0.84592   0.95054   1.000
    N865    N    0.30481   0.09028   0.40636   1.000
    O866    O    0.24449   0.11690   0.36815   1.000
    O867    O    0.24542   0.12855   0.37952   1.000
    O868    O    0.35885   0.08064   0.44860   1.000
    O869    O    0.34681   0.09263   0.44858   1.000
    O870    O    0.35898   0.04950   0.41637   1.000
    O871    O    0.34700   0.04941   0.40436   1.000
    N872    N    0.09154   0.30489   0.40883   1.000
    O873    O    0.12880   0.24500   0.38159   1.000
    O874    O    0.11445   0.24159   0.37370   1.000
    O875    O    0.05116   0.35960   0.41825   1.000
    O876    O    0.05110   0.34772   0.40620   1.000
    O877    O    0.08340   0.35997   0.44951   1.000
    O878    O    0.09546   0.34801   0.44952   1.000
    N879    N    0.59084   0.40735   0.80597   1.000
    O880    O    0.61626   0.36981   0.74522   1.000
    O881    O    0.62763   0.38163   0.74514   1.000
    O882    O    0.58210   0.44874   0.86037   1.000
    O883    O    0.59430   0.44847   0.84864   1.000
    O884    O    0.55006   0.41742   0.86029   1.000
    O885    O    0.54977   0.40529   0.84849   1.000
    N886    N    0.80567   0.40823   0.59113   1.000
    O887    O    0.74483   0.38226   0.62817   1.000
    O888    O    0.74540   0.37060   0.61675   1.000
    O889    O    0.85978   0.41750   0.54989   1.000
    O890    O    0.84796   0.40538   0.54992   1.000
    O891    O    0.86024   0.44907   0.58183   1.000
    O892    O    0.84837   0.44900   0.59390   1.000
    N893    N    0.59032   0.19261   0.59161   1.000
    O894    O    0.62853   0.25277   0.61713   1.000
    O895    O    0.61654   0.25255   0.62866   1.000
    O896    O    0.54850   0.13885   0.58293   1.000
    O897    O    0.54834   0.15103   0.59468   1.000
    O898    O    0.58073   0.13908   0.55089   1.000
    O899    O    0.59240   0.15137   0.55099   1.000
    N900    N    0.59249   0.91081   0.30744   1.000
    O901    O    0.61795   0.87330   0.24757   1.000
    O902    O    0.62988   0.88441   0.24716   1.000
    O903    O    0.58273   0.95159   0.36127   1.000
    O904    O    0.59476   0.95163   0.34935   1.000
    O905    O    0.55095   0.91955   0.36118   1.000
    O906    O    0.55122   0.90761   0.34917   1.000
    N907    N    0.59209   0.69503   0.09246   1.000
    O908    O    0.62856   0.75594   0.11797   1.000
    O909    O    0.61726   0.75590   0.13031   1.000
    O910    O    0.55148   0.64108   0.08300   1.000
    O911    O    0.55177   0.65302   0.09499   1.000
    O912    O    0.58282   0.64036   0.05099   1.000
    O913    O    0.59490   0.65226   0.05072   1.000
    N914    N    0.09223   0.40889   0.30645   1.000
    O915    O    0.11730   0.37124   0.24599   1.000
    O916    O    0.12888   0.38274   0.24554   1.000
    O917    O    0.08252   0.45036   0.36028   1.000
    O918    O    0.09437   0.45067   0.34819   1.000
    O919    O    0.05142   0.41803   0.36063   1.000
    O920    O    0.05135   0.40616   0.34858   1.000
    N921    N    0.30616   0.40949   0.09229   1.000
    O922    O    0.24531   0.38296   0.12860   1.000
    O923    O    0.24518   0.37139   0.11700   1.000
    O924    O    0.36023   0.41943   0.05175   1.000
    O925    O    0.34828   0.40742   0.05188   1.000
    O926    O    0.36063   0.45141   0.08321   1.000
    O927    O    0.34859   0.45176   0.09510   1.000
    N928    N    0.09235   0.90805   0.80574   1.000
    O929    O    0.11803   0.87110   0.74550   1.000
    O930    O    0.12970   0.88261   0.74474   1.000
    O931    O    0.08245   0.94856   0.85981   1.000
    O932    O    0.09461   0.94824   0.84805   1.000
    O933    O    0.05067   0.91664   0.85994   1.000
    O934    O    0.05067   0.90463   0.84800   1.000
    N935    N    0.30688   0.90760   0.59019   1.000
    O936    O    0.24650   0.88209   0.62728   1.000
    O937    O    0.24655   0.87027   0.61611   1.000
    O938    O    0.36082   0.91716   0.54936   1.000
    O939    O    0.34890   0.90512   0.54942   1.000
    O940    O    0.36065   0.94889   0.58180   1.000
    O941    O    0.34847   0.94860   0.59357   1.000
    N942    N    0.09171   0.69309   0.59216   1.000
    O943    O    0.12926   0.75353   0.61736   1.000
    O944    O    0.11752   0.75373   0.62921   1.000
    O945    O    0.05075   0.63882   0.58246   1.000
    O946    O    0.05070   0.65068   0.59455   1.000
    O947    O    0.08270   0.63938   0.55104   1.000
    O948    O    0.09466   0.65139   0.55107   1.000
    N949    N    0.40773   0.58941   0.80590   1.000
    O950    O    0.38245   0.62669   0.74597   1.000
    O951    O    0.36940   0.61682   0.74605   1.000
    O952    O    0.41771   0.54969   0.86057   1.000
    O953    O    0.40554   0.54986   0.84873   1.000
    O954    O    0.45011   0.58085   0.85960   1.000
    O955    O    0.45015   0.59278   0.84752   1.000
    N956    N    0.19491   0.59273   0.59013   1.000
    O957    O    0.25375   0.61936   0.62828   1.000
    O958    O    0.25408   0.63168   0.61749   1.000
    O959    O    0.14072   0.58282   0.55000   1.000
    O960    O    0.15271   0.59480   0.55001   1.000
    O961    O    0.14099   0.55064   0.58154   1.000
    O962    O    0.15293   0.55057   0.59360   1.000
    N963    N    0.41018   0.80608   0.59289   1.000
    O964    O    0.37172   0.74744   0.61952   1.000
    O965    O    0.38439   0.74500   0.63018   1.000
    O966    O    0.45057   0.86014   0.58301   1.000
    O967    O    0.45067   0.84805   0.59494   1.000
    O968    O    0.41893   0.86005   0.55075   1.000
    O969    O    0.40702   0.84800   0.55079   1.000
    N970    N    0.40801   0.09210   0.30487   1.000
    O971    O    0.38255   0.12967   0.24387   1.000
    O972    O    0.37132   0.11774   0.24378   1.000
    O973    O    0.41704   0.05050   0.35932   1.000
    O974    O    0.40508   0.05037   0.34729   1.000
    O975    O    0.44866   0.08236   0.35934   1.000
    O976    O    0.44856   0.09455   0.34752   1.000
    N977    N    0.40776   0.30811   0.09131   1.000
    O978    O    0.36969   0.24735   0.11617   1.000
    O979    O    0.38190   0.24745   0.12754   1.000
    O980    O    0.44957   0.36223   0.08333   1.000
    O981    O    0.44940   0.35029   0.09540   1.000
    O982    O    0.41749   0.36237   0.05125   1.000
    O983    O    0.40556   0.35035   0.05138   1.000
    N984    N    0.90837   0.59002   0.30735   1.000
    O985    O    0.88280   0.62721   0.24722   1.000
    O986    O    0.86935   0.61810   0.24854   1.000
    O987    O    0.91776   0.54960   0.36139   1.000
    O988    O    0.90599   0.54973   0.34917   1.000
    O989    O    0.94959   0.58188   0.36186   1.000
    O990    O    0.94946   0.59389   0.34986   1.000
    N991    N    0.69559   0.59065   0.09160   1.000
    O992    O    0.75385   0.61843   0.13090   1.000
    O993    O    0.75460   0.62893   0.11844   1.000
    O994    O    0.64092   0.58168   0.05054   1.000
    O995    O    0.65298   0.59360   0.05027   1.000
    O996    O    0.64159   0.54984   0.08215   1.000
    O997    O    0.65368   0.54983   0.09407   1.000
    N998    N    0.91048   0.09245   0.80355   1.000
    O999    O    0.88525   0.12830   0.74148   1.000
    O1000   O    0.87254   0.11828   0.74352   1.000
    O1001   O    0.91958   0.05079   0.85766   1.000
    O1002   O    0.90765   0.05083   0.84558   1.000
    O1003   O    0.95119   0.08269   0.85794   1.000
    O1004   O    0.95145   0.09463   0.84589   1.000
    N1005   N    0.69318   0.09278   0.59131   1.000
    O1006   O    0.75372   0.11874   0.62830   1.000
    O1007   O    0.75152   0.13221   0.61935   1.000
    O1008   O    0.63881   0.08297   0.55076   1.000
    O1009   O    0.65049   0.09525   0.55086   1.000
    O1010   O    0.63869   0.05158   0.58260   1.000
    O1011   O    0.65070   0.05152   0.59461   1.000
    N1012   N    0.90811   0.30674   0.58991   1.000
    O1013   O    0.86847   0.24869   0.61857   1.000
    O1014   O    0.88334   0.24524   0.62539   1.000
    O1015   O    0.95020   0.36041   0.58057   1.000
    O1016   O    0.95031   0.34824   0.59240   1.000
    O1017   O    0.91756   0.36051   0.54915   1.000
    O1018   O    0.90576   0.34836   0.54916   1.000
    N1019   N    0.40992   0.40859   0.80725   1.000
    O1020   O    0.37294   0.38242   0.74739   1.000
    O1021   O    0.38450   0.37094   0.74663   1.000
    O1022   O    0.45046   0.41831   0.86095   1.000
    O1023   O    0.45014   0.40618   0.84915   1.000
    O1024   O    0.41877   0.45018   0.86134   1.000
    O1025   O    0.40662   0.45035   0.84949   1.000
    N1026   N    0.40767   0.19323   0.59154   1.000
    O1027   O    0.38333   0.25397   0.62895   1.000
    O1028   O    0.37173   0.25386   0.61743   1.000
    O1029   O    0.41663   0.13846   0.55042   1.000
    O1030   O    0.40457   0.15043   0.55032   1.000
    O1031   O    0.44807   0.13911   0.58301   1.000
    O1032   O    0.44786   0.15128   0.59478   1.000
    N1033   N    0.19556   0.40882   0.59235   1.000
    O1034   O    0.25586   0.37127   0.61823   1.000
    O1035   O    0.25596   0.38274   0.63042   1.000
    O1036   O    0.14142   0.44957   0.58262   1.000
    O1037   O    0.15335   0.44947   0.59469   1.000
    O1038   O    0.14184   0.41838   0.55032   1.000
    O1039   O    0.15393   0.40645   0.55029   1.000
loop_
    _geom_bond_atom_site_label_1
    _geom_bond_atom_site_label_2
    _geom_bond_distance
    _geom_bond_site_symmetry_2
    _ccdc_geom_bond_type
    Zr156  O256      1.03252      .   S
    Zr158  O256      1.03252      .   S
    Zr156  O257      1.03280      .   S
    Zr159  O257      1.03280      .   S
    Zr136  O258      1.03171      .   S
    Zr138  O258      1.03171      .   S
    Zr136  O259      1.03340      .   S
    Zr139  O259      1.03340      .   S
    Zr16   O260      1.02841      .   S
    Zr18   O260      1.02841      .   S
    Zr16   O261      1.02955      .   S
    Zr19   O261      1.02955      .   S
    Zr121  O262      1.02686      .   S
    Zr123  O262      1.02686      .   S
    Zr121  O263      1.02782      .   S
    Zr124  O263      1.02782      .   S
    Zr141  O264      1.03120      .   S
    Zr143  O264      1.03120      .   S
    Zr141  O265      1.03204      .   S
    Zr144  O265      1.03204      .   S
    Zr38   O266      1.02124      .   S
    Zr36   O266      1.02124      .   S
    Zr3    O267      1.02803      .   S
    Zr2    O267      1.02803      .   S
    Zr23   O268      1.02493      .   S
    Zr22   O268      1.02493      .   S
    Zr4    O269      1.02931      .   S
    Zr2    O269      1.02931      .   S
    Zr24   O270      1.02709      .   S
    Zr22   O270      1.02709      .   S
    Zr39   O271      0.99897      .   S
    Zr37   O271      0.99897      .   S
    Zr117  O272      1.03370      .   S
    Zr119  O272      1.03370      .   S
    Zr117  O273      1.03297      .   S
    Zr118  O273      1.03297      .   S
    Zr82   O274      1.02892      .   S
    Zr84   O274      1.02892      .   S
    Zr82   O275      1.03105      .   S
    Zr83   O275      1.03105      .   S
    Zr62   O276      1.02643      .   S
    Zr64   O276      1.02643      .   S
    Zr77   O277      1.01083      .   S
    Zr79   O277      1.01083      .   S
    Zr99   O278      1.02958      .   S
    Zr96   O278      1.02958      .   S
    Zr44   O279      1.02965      .   S
    Zr41   O279      1.02965      .   S
    Zr59   O280      1.02427      .   S
    Zr56   O280      1.02427      .   S
    Zr104  O281      1.03165      .   S
    Zr101  O281      1.03165      .   S
    Zr103  O282      1.03347      .   S
    Zr101  O282      1.03347      .   S
    Zr76   O283      1.00550      .   S
    Zr78   O283      1.00550      .   S
    Zr98   O284      1.02901      .   S
    Zr96   O284      1.02901      .   S
    Zr43   O285      1.02775      .   S
    Zr41   O285      1.02775      .   S
    Zr58   O286      1.02520      .   S
    Zr56   O286      1.02520      .   S
    Zr63   O287      1.01995      .   S
    Zr61   O287      1.01995      .   S
    Zr31   O288      1.02958      .   S
    Zr33   O288      1.02958      .   S
    Zr31   O289      1.02948      .   S
    Zr34   O289      1.02948      .   S
    Zr11   O290      1.02954      .   S
    Zr13   O290      1.02954      .   S
    Zr11   O291      1.03142      .   S
    Zr14   O291      1.03142      .   S
    Zr146  O292      1.03221      .   S
    Zr148  O292      1.03221      .   S
    Zr146  O293      1.02879      .   S
    Zr149  O293      1.02879      .   S
    Zr6    O294      1.02936      .   S
    Zr8    O294      1.02936      .   S
    Zr6    O295      1.03064      .   S
    Zr9    O295      1.03064      .   S
    Zr126  O296      1.03199      .   S
    Zr128  O296      1.03199      .   S
    Zr126  O297      1.03090      .   S
    Zr129  O297      1.03090      .   S
    Zr26   O298      1.02399      .   S
    Zr28   O298      1.02399      .   S
    Zr151  O299      1.03298      .   S
    Zr154  O299      1.03298      .   S
    Zr133  O300      1.02640      .   S
    Zr132  O300      1.02640      .   S
    Zr153  O301      1.03325      .   S
    Zr152  O301      1.03325      .   S
    Zr134  O302      1.02699      .   S
    Zr132  O302      1.02699      .   S
    Zr29   O303      1.02160      .   S
    Zr27   O303      1.02160      .   S
    Zr52   O304      1.02788      .   S
    Zr54   O304      1.02788      .   S
    Zr52   O305      1.02782      .   S
    Zr53   O305      1.02782      .   S
    Zr47   O306      1.03269      .   S
    Zr49   O306      1.03269      .   S
    Zr47   O307      1.03079      .   S
    Zr48   O307      1.03079      .   S
    Zr107  O308      1.02696      .   S
    Zr109  O308      1.02696      .   S
    Zr107  O309      1.02521      .   S
    Zr108  O309      1.02521      .   S
    Zr112  O310      1.02956      .   S
    Zr114  O310      1.02956      .   S
    Zr112  O311      1.02914      .   S
    Zr113  O311      1.02914      .   S
    Zr92   O312      1.02603      .   S
    Zr94   O312      1.02603      .   S
    Zr92   O313      1.02322      .   S
    Zr93   O313      1.02322      .   S
    Zr72   O314      1.01982      .   S
    Zr74   O314      1.01982      .   S
    Zr69   O315      1.02997      .   S
    Zr66   O315      1.02997      .   S
    Zr89   O316      1.03301      .   S
    Zr86   O316      1.03301      .   S
    Zr68   O317      1.03037      .   S
    Zr66   O317      1.03037      .   S
    Zr88   O318      1.03236      .   S
    Zr86   O318      1.03236      .   S
    Zr73   O319      1.02554      .   S
    Zr71   O319      1.02554      .   S
    Zr160  O320      1.32390      .   S
    Zr161  O320      1.32390      .   S
    Zr162  O321      1.32190      .   S
    Zr163  O321      1.32190      .   S
    Zr164  O322      1.32198      .   S
    Zr165  O322      1.32198      .   S
    Zr166  O323      1.32372      .   S
    Zr167  O323      1.32372      .   S
    Zr168  O324      1.32261      .   S
    Zr169  O324      1.32261      .   S
    Zr170  O325      1.32360      .   S
    Zr171  O325      1.32360      .   S
    Zr172  O326      1.32285      .   S
    Zr173  O326      1.32285      .   S
    Zr174  O327      1.32373      .   S
    Zr175  O327      1.32373      .   S
    Zr176  O328      1.32253      .   S
    Zr177  O328      1.32253      .   S
    Zr178  O329      1.32376      .   S
    Zr179  O329      1.32376      .   S
    Zr180  O330      1.32287      .   S
    Zr181  O330      1.32287      .   S
    Zr182  O331      1.32422      .   S
    Zr183  O331      1.32422      .   S
    Zr184  O332      1.32251      .   S
    Zr185  O332      1.32251      .   S
    Zr186  O333      1.32438      .   S
    Zr187  O333      1.32438      .   S
    Zr188  O334      1.32306      .   S
    Zr189  O334      1.32306      .   S
    Zr190  O335      1.32369      .   S
    Zr191  O335      1.32369      .   S
    Zr192  O336      1.32345      .   S
    Zr193  O336      1.32345      .   S
    Zr194  O337      1.32480      .   S
    Zr195  O337      1.32480      .   S
    Zr196  O338      1.32255      .   S
    Zr197  O338      1.32255      .   S
    Zr198  O339      1.32347      .   S
    Zr199  O339      1.32347      .   S
    Zr200  O340      1.32334      .   S
    Zr201  O340      1.32334      .   S
    Zr202  O341      1.32370      .   S
    Zr203  O341      1.32370      .   S
    Zr204  O342      1.32350      .   S
    Zr205  O342      1.32350      .   S
    Zr206  O343      1.32361      .   S
    Zr207  O343      1.32361      .   S
    Zr208  O344      1.32416      .   S
    Zr209  O344      1.32416      .   S
    Zr210  O345      1.32323      .   S
    Zr211  O345      1.32323      .   S
    Zr212  O346      1.32316      .   S
    Zr213  O346      1.32316      .   S
    Zr214  O347      1.32370      .   S
    Zr215  O347      1.32370      .   S
    Zr216  O348      1.32465      .   S
    Zr217  O348      1.32465      .   S
    Zr218  O349      1.32317      .   S
    Zr219  O349      1.32317      .   S
    Zr220  O350      1.32347      .   S
    Zr221  O350      1.32347      .   S
    Zr222  O351      1.32459      .   S
    Zr223  O351      1.32459      .   S
    Zr224  O352      1.32420      .   S
    Zr225  O352      1.32420      .   S
    Zr226  O353      1.32368      .   S
    Zr227  O353      1.32368      .   S
    Zr228  O354      1.32405      .   S
    Zr229  O354      1.32405      .   S
    Zr230  O355      1.32560      .   S
    Zr231  O355      1.32560      .   S
    Zr232  O356      1.32304      .   S
    Zr233  O356      1.32304      .   S
    Zr234  O357      1.32417      .   S
    Zr235  O357      1.32417      .   S
    Zr236  O358      1.32421      .   S
    Zr237  O358      1.32421      .   S
    Zr238  O359      1.32331      .   S
    Zr239  O359      1.32331      .   S
    Zr240  O360      1.32250      .   S
    Zr241  O360      1.32250      .   S
    Zr242  O361      1.32341      .   S
    Zr243  O361      1.32341      .   S
    Zr244  O362      1.32272      .   S
    Zr245  O362      1.32272      .   S
    Zr246  O363      1.32461      .   S
    Zr247  O363      1.32461      .   S
    Zr248  O364      1.32429  1_554   S
    Zr249  O364      1.32429      .   S
    Zr250  O365      1.32488      .   S
    Zr251  O365      1.32488  1_556   S
    Zr252  O366      1.32296      .   S
    Zr253  O366      1.32296      .   S
    Zr254  O367      1.32435      .   S
    Zr255  O367      1.32435      .   S
    N368   O369      5.40779      .   S
    Zr132  O369      6.31291      .   S
    N368   O370      5.39348      .   S
    Zr131  O370      6.27877      .   S
    N368   O371      4.90836      .   S
    Zr238  O371      5.69740      .   S
    N368   O372      4.21736      .   S
    Zr239  O372      5.00172      .   S
    N368   O373      4.91584      .   S
    Zr250  O373      5.69943  1_554   S
    N368   O374      4.21293      .   S
    Zr251  O374      4.98561      .   S
    N375   O376      5.41283      .   S
    Zr86   O376      6.32124      .   S
    N375   O377      5.35467      .   S
    Zr85   O377      6.23219      .   S
    N375   O378      4.94841      .   S
    Zr208  O378      5.74626      .   S
    N375   O379      4.27527      .   S
    Zr209  O379      5.06545      .   S
    N375   O380      4.86976      .   S
    Zr212  O380      5.65079      .   S
    N375   O381      4.16159      .   S
    Zr213  O381      4.93994      .   S
    N382   O383      5.42746      .   S
    Zr85   O383      6.34692      .   S
    N382   O384      5.34190      .   S
    Zr87   O384      6.20404      .   S
    N382   O385      4.93787      .   S
    Zr248  O385      5.73150      .   S
    N382   O386      4.26195      .   S
    Zr249  O386      5.04669  1_556   S
    N382   O387      4.87948      .   S
    Zr242  O387      5.66107      .   S
    N382   O388      4.18654      .   S
    Zr243  O388      4.96841      .   S
    N389   O390      5.44433      .   S
    Zr87   O390      6.36042      .   S
    N389   O391      5.37689      .   S
    Zr86   O391      6.25054      .   S
    N389   O392      4.93652      .   S
    Zr160  O392      5.73136      .   S
    N389   O393      4.25573      .   S
    Zr161  O393      5.04358      .   S
    N389   O394      4.88450      .   S
    Zr174  O394      5.67011      .   S
    N389   O395      4.17884      .   S
    Zr175  O395      4.95909      .   S
    N396   O397      5.38922      .   S
    Zr91   O397      6.27708      .   S
    N396   O398      5.37392      .   S
    Zr90   O398      6.26772      .   S
    N396   O399      4.91248      .   S
    Zr184  O399      5.68942  1_455   S
    N396   O400      4.21799      .   S
    Zr185  O400      4.99029  1_455   S
    N396   O401      4.89027      .   S
    Zr188  O401      5.67646      .   S
    N396   O402      4.19521      .   S
    Zr189  O402      4.97923      .   S
    N403   O404      5.45265      .   S
    Zr90   O404      6.36448      .   S
    N403   O405      5.38822      .   S
    Zr92   O405      6.25807      .   S
    N403   O406      4.96797      .   S
    Zr176  O406      5.76941  1_556   S
    N403   O407      4.30455      .   S
    Zr177  O407      5.09944  1_556   S
    N403   O408      4.87372      .   S
    Zr164  O408      5.65231      .   S
    N403   O409      4.16586      .   S
    Zr165  O409      4.94281      .   S
    N410   O411      5.41306      .   S
    Zr92   O411      6.31571      .   S
    N410   O412      5.40891      .   S
    Zr91   O412      6.29654      .   S
    N410   O413      4.88830      .   S
    Zr254  O413      5.67510      .   S
    N410   O414      4.19527      .   S
    Zr255  O414      4.98029      .   S
    N410   O415      4.93511      .   S
    Zr246  O415      5.72763      .   S
    N410   O416      4.24930      .   S
    Zr247  O416      5.03134      .   S
    N417   O418      5.42383      .   S
    Zr96   O418      6.31552      .   S
    N417   O419      5.40187      .   S
    Zr95   O419      6.29227      .   S
    N417   O420      4.93125      .   S
    Zr182  O420      5.71749      .   S
    N417   O421      4.24672      .   S
    Zr183  O421      5.02639      .   S
    N417   O422      4.89547      .   S
    Zr170  O422      5.68361  1_545   S
    N417   O423      4.19476      .   S
    Zr171  O423      4.97688  1_545   S
    N424   O425      5.41767      .   S
    Zr95   O425      6.32456      .   S
    N424   O426      5.39153      .   S
    Zr97   O426      6.26396      .   S
    N424   O427      4.88312      .   S
    Zr200  O427      5.66580      .   S
    N424   O428      4.19085      .   S
    Zr201  O428      4.97373      .   S
    N424   O429      4.91314      .   S
    Zr194  O429      5.69868  1_455   S
    N424   O430      4.21938      .   S
    Zr195  O430      4.99603  1_455   S
    N431   O432      5.42000      .   S
    Zr97   O432      6.32469      .   S
    N431   O433      5.37309      .   S
    Zr96   O433      6.25311      .   S
    N431   O434      4.93474      .   S
    Zr230  O434      5.72534  1_545   S
    N431   O435      4.25561      .   S
    Zr231  O435      5.03704  1_545   S
    N431   O436      4.85861      .   S
    Zr222  O436      5.63468      .   S
    N431   O437      4.14686      .   S
    Zr223  O437      4.91895      .   S
    N438   O439      5.37684      .   S
    Zr101  O439      6.24181      .   S
    N438   O440      5.44871      .   S
    Zr100  O440      6.36029      .   S
    N438   O441      4.88081      .   S
    Zr234  O441      5.66666      .   S
    N438   O442      4.17206      .   S
    Zr235  O442      4.95011      .   S
    N438   O443      4.95369      .   S
    Zr238  O443      5.75076      .   S
    N438   O444      4.28798      .   S
    Zr239  O444      5.08026      .   S
    N445   O446      5.37521      .   S
    Zr100  O446      6.24891      .   S
    N445   O447      5.43154      .   S
    Zr102  O447      6.33341      .   S
    N445   O448      4.89264      .   S
    Zr222  O448      5.68348      .   S
    N445   O449      4.18879      .   S
    Zr223  O449      4.97144      .   S
    N445   O450      4.93535      .   S
    Zr216  O450      5.72654      .   S
    N445   O451      4.25380      .   S
    Zr217  O451      5.03775      .   S
    N452   O453      5.34641      .   S
    Zr102  O453      6.22126      .   S
    N452   O454      5.40260      .   S
    Zr101  O454      6.31472      .   S
    N452   O455      4.87597      .   S
    Zr204  O455      5.66002      .   S
    N452   O456      4.18012      .   S
    Zr205  O456      4.96079      .   S
    N452   O457      4.89159      .   S
    Zr200  O457      5.68422      .   S
    N452   O458      4.20502      .   S
    Zr201  O458      4.99275      .   S
    N459   O460      5.39485      .   S
    Zr106  O460      6.29133      .   S
    N459   O461      5.36171      .   S
    Zr105  O461      6.24747      .   S
    N459   O462      4.92664      .   S
    Zr210  O462      5.71644      .   S
    N459   O463      4.25690      .   S
    Zr211  O463      5.04553      .   S
    N459   O464      4.86482      .   S
    Zr214  O464      5.64614      .   S
    N459   O465      4.16125      .   S
    Zr215  O465      4.94003      .   S
    N466   O467      5.44105      .   S
    Zr105  O467      6.34573      .   S
    N466   O468      5.39665      .   S
    Zr107  O468      6.27701      .   S
    N466   O469      4.92093      .   S
    Zr246  O469      5.70874      .   S
    N466   O470      4.22701      .   S
    Zr247  O470      5.00612      .   S
    N466   O471      4.91158      .   S
    Zr240  O471      5.70759      .   S
    N466   O472      4.22445      .   S
    Zr241  O472      5.01639      .   S
    N473   O474      5.41766      .   S
    Zr107  O474      6.31994      .   S
    N473   O475      5.41873      .   S
    Zr106  O475      6.30981      .   S
    N473   O476      4.87435      .   S
    Zr162  O476      5.65370      .   S
    N473   O477      4.16490      .   S
    Zr163  O477      4.94205      .   S
    N473   O478      4.94556      .   S
    Zr176  O478      5.73172  1_556   S
    N473   O479      4.26749      .   S
    Zr177  O479      5.04855  1_556   S
    N480   O481      5.38497      .   S
    Zr111  O481      6.26724      .   S
    N480   O482      5.38855      .   S
    Zr110  O482      6.29050      .   S
    N480   O483      4.94134      .   S
    Zr186  O483      5.73682  1_655   S
    N480   O484      4.25504      .   S
    Zr187  O484      5.03772  1_655   S
    N480   O485      4.88153      .   S
    Zr190  O485      5.67169      .   S
    N480   O486      4.17276      .   S
    Zr191  O486      4.95488      .   S
    N487   O488      5.38337      .   S
    Zr110  O488      6.27703      .   S
    N487   O489      5.39994      .   S
    Zr112  O489      6.29124      .   S
    N487   O490      4.87697      .   S
    Zr174  O490      5.66013      .   S
    N487   O491      4.17929      .   S
    Zr175  O491      4.96166      .   S
    N487   O492      4.94067      .   S
    Zr166  O492      5.73726  1_655   S
    N487   O493      4.26927      .   S
    Zr167  O493      5.05840  1_655   S
    N494   O495      5.38479      .   S
    Zr112  O495      6.26850      .   S
    N494   O496      5.42537      .   S
    Zr111  O496      6.32967      .   S
    N494   O497      4.85334      .   S
    Zr252  O497      5.62399      .   S
    N494   O498      4.13780      .   S
    Zr253  O498      4.90813      .   S
    N494   O499      4.95122      .   S
    Zr248  O499      5.74610      .   S
    N494   O500      4.28168      .   S
    Zr249  O500      5.07062  1_556   S
    N501   O502      5.32874      .   S
    Zr116  O502      6.18363      .   S
    N501   O503      5.42309      .   S
    Zr115  O503      6.34500      .   S
    N501   O504      4.84646      .   S
    Zr180  O504      5.61585      .   S
    N501   O505      4.12679      .   S
    Zr181  O505      4.89359      .   S
    N501   O506      4.95035      .   S
    Zr168  O506      5.74757  1_565   S
    N501   O507      4.29608      .   S
    Zr169  O507      5.09343  1_565   S
    N508   O509      5.35965      .   S
    Zr115  O509      6.24012      .   S
    N508   O510      5.40814      .   S
    Zr117  O510      6.30997      .   S
    N508   O511      4.89625      .   S
    Zr198  O511      5.68529      .   S
    N508   O512      4.20392      .   S
    Zr199  O512      4.99119      .   S
    N508   O513      4.92165      .   S
    Zr192  O513      5.70557      .   S
    N508   O514      4.22772      .   S
    Zr193  O514      5.00331      .   S
    N515   O516      5.36718      .   S
    Zr117  O516      6.23727      .   S
    N515   O517      5.44127      .   S
    Zr116  O517      6.35777      .   S
    N515   O518      4.87891      .   S
    Zr228  O518      5.66481  1_565   S
    N515   O519      4.17708      .   S
    Zr229  O519      4.95801  1_565   S
    N515   O520      4.93421      .   S
    Zr224  O520      5.72196      .   S
    N515   O521      4.25511      .   S
    Zr225  O521      5.03618      .   S
    N522   O523      5.42813      .   S
    Zr121  O523      6.31907      .   S
    N522   O524      5.41359      .   S
    Zr120  O524      6.30785      .   S
    N522   O525      4.94286      .   S
    Zr242  O525      5.73794      .   S
    N522   O526      4.26584      .   S
    Zr243  O526      5.05418      .   S
    N522   O527      4.89194      .   S
    Zr252  O527      5.68210      .   S
    N522   O528      4.18150      .   S
    Zr253  O528      4.96292      .   S
    N529   O530      5.39186      .   S
    Zr120  O530      6.29539      .   S
    N529   O531      5.38477      .   S
    Zr122  O531      6.26462      .   S
    N529   O532      4.88914      .   S
    Zr220  O532      5.68053      .   S
    N529   O533      4.19710      .   S
    Zr221  O533      4.98604      .   S
    N529   O534      4.92925      .   S
    Zr208  O534      5.71616      .   S
    N529   O535      4.24824      .   S
    Zr209  O535      5.02889      .   S
    N536   O537      5.41049      .   S
    Zr122  O537      6.30586      .   S
    N536   O538      5.39113      .   S
    Zr121  O538      6.28164      .   S
    N536   O539      4.90353      .   S
    Zr190  O539      5.68329      .   S
    N536   O540      4.21146      .   S
    Zr191  O540      4.98781      .   S
    N536   O541      4.88369      .   S
    Zr202  O541      5.66393      .   S
    N536   O542      4.18789      .   S
    Zr203  O542      4.96744      .   S
    N543   O544      5.40816      .   S
    Zr126  O544      6.29776      .   S
    N543   O545      5.43209      .   S
    Zr125  O545      6.33070      .   S
    N543   O546      4.88232      .   S
    Zr218  O546      5.66650      .   S
    N543   O547      4.18566      .   S
    Zr219  O547      4.96923      .   S
    N543   O548      4.94162      .   S
    Zr228  O548      5.73547  1_565   S
    N543   O549      4.27292      .   S
    Zr229  O549      5.06319  1_565   S
    N550   O551      5.43450      .   S
    Zr125  O551      6.33948      .   S
    N550   O552      5.39183      .   S
    Zr127  O552      6.27231      .   S
    N550   O553      4.93777      .   S
    Zr244  O553      5.72619  1_554   S
    N550   O554      4.25514      .   S
    Zr245  O554      5.03754  1_554   S
    N550   O555      4.87380      .   S
    Zr232  O555      5.64967      .   S
    N550   O556      4.16166      .   S
    Zr233  O556      4.93523      .   S
    N557   O558      5.44496      .   S
    Zr127  O558      6.35320      .   S
    N557   O559      5.40615      .   S
    Zr126  O559      6.29414      .   S
    N557   O560      4.95057      .   S
    Zr168  O560      5.75054  1_565   S
    N557   O561      4.27700      .   S
    Zr169  O561      5.06796  1_565   S
    N557   O562      4.88254      .   S
    Zr172  O562      5.66246      .   S
    N557   O563      4.17487      .   S
    Zr173  O563      4.94980      .   S
    N564   O565      5.41651      .   S
    Zr131  O565      6.30799      .   S
    N564   O566      5.39626      .   S
    Zr130  O566      6.28569      .   S
    N564   O567      4.91780      .   S
    Zr194  O567      5.70544  1_455   S
    N564   O568      4.22758      .   S
    Zr195  O568      5.00614  1_455   S
    N564   O569      4.88583      .   S
    Zr204  O569      5.67028      .   S
    N564   O570      4.18526      .   S
    Zr205  O570      4.96380      .   S
    N571   O572      5.44434      .   S
    Zr130  O572      6.35188      .   S
    N571   O573      5.39018      .   S
    Zr132  O573      6.26425      .   S
    N571   O574      4.94116      .   S
    Zr178  O574      5.73688      .   S
    N571   O575      4.26278      .   S
    Zr179  O575      5.05084      .   S
    N571   O576      4.89033      .   S
    Zr182  O576      5.67795      .   S
    N571   O577      4.18737      .   S
    Zr183  O577      4.96916      .   S
    N578   O579      5.37607      .   S
    Zr136  O579      6.24030      .   S
    N578   O580      5.45621      .   S
    Zr135  O580      6.37342      .   S
    N578   O581      4.89545      .   S
    Zr164  O581      5.68206      .   S
    N578   O582      4.19467      .   S
    Zr165  O582      4.97845      .   S
    N578   O583      4.95144      .   S
    Zr162  O583      5.74589      .   S
    N578   O584      4.27723      .   S
    Zr163  O584      5.06782      .   S
    N585   O586      5.39125      .   S
    Zr135  O586      6.26942      .   S
    N585   O587      5.44401      .   S
    Zr137  O587      6.34854      .   S
    N585   O588      4.88210      .   S
    Zr196  O588      5.66266      .   S
    N585   O589      4.17407      .   S
    Zr197  O589      4.95183      .   S
    N585   O590      4.95347      .   S
    Zr184  O590      5.74746  1_455   S
    N585   O591      4.27309      .   S
    Zr185  O591      5.05830  1_455   S
    N592   O593      5.38117      .   S
    Zr137  O593      6.25161      .   S
    N592   O594      5.45713      .   S
    Zr136  O594      6.37756      .   S
    N592   O595      4.87109      .   S
    Zr214  O595      5.65136      .   S
    N592   O596      4.15836      .   S
    Zr215  O596      4.93501      .   S
    N592   O597      4.97178      .   S
    Zr226  O597      5.77607      .   S
    N592   O598      4.31101      .   S
    Zr227  O598      5.10895      .   S
    N599   O600      5.37173      .   S
    Zr141  O600      6.26215      .   S
    N599   O601      5.39166      .   S
    Zr140  O601      6.28346      .   S
    N599   O602      4.87838      .   S
    Zr240  O602      5.66047      .   S
    N599   O603      4.18340      .   S
    Zr241  O603      4.96634      .   S
    N599   O604      4.93549      .   S
    Zr254  O604      5.72981      .   S
    N599   O605      4.25423      .   S
    Zr255  O605      5.03979      .   S
    N606   O607      5.40098      .   S
    Zr140  O607      6.30236      .   S
    N606   O608      5.35421      .   S
    Zr142  O608      6.23365      .   S
    N606   O609      4.91421      .   S
    Zr226  O609      5.69358      .   S
    N606   O610      4.22175      .   S
    Zr227  O610      4.99435      .   S
    N606   O611      4.88771      .   S
    Zr210  O611      5.67363      .   S
    N606   O612      4.18694      .   S
    Zr211  O612      4.96726      .   S
    N613   O614      5.44128      .   S
    Zr142  O614      6.34981      .   S
    N613   O615      5.40062      .   S
    Zr141  O615      6.28770      .   S
    N613   O616      4.94447      .   S
    Zr188  O616      5.74156      .   S
    N613   O617      4.27411      .   S
    Zr189  O617      5.06630      .   S
    N613   O618      4.88537      .   S
    Zr196  O618      5.66996      .   S
    N613   O619      4.18840      .   S
    Zr197  O619      4.97176      .   S
    N620   O621      5.39095      .   S
    Zr146  O621      6.28074      .   S
    N620   O622      5.40495      .   S
    Zr145  O622      6.29379      .   S
    N620   O623      4.89379      .   S
    Zr216  O623      5.68254      .   S
    N620   O624      4.19836      .   S
    Zr217  O624      4.98324      .   S
    N620   O625      4.92460      .   S
    Zr230  O625      5.71197  1_545   S
    N620   O626      4.23305      .   S
    Zr231  O626      5.01064  1_545   S
    N627   O628      5.41512      .   S
    Zr145  O628      6.31728      .   S
    N627   O629      5.36269      .   S
    Zr147  O629      6.23528      .   S
    N627   O630      4.92892      .   S
    Zr250  O630      5.71715  1_554   S
    N627   O631      4.24165      .   S
    Zr251  O631      5.02068      .   S
    N627   O632      4.87190      .   S
    Zr234  O632      5.65079      .   S
    N627   O633      4.17019      .   S
    Zr235  O633      4.94801      .   S
    N634   O635      5.43241      .   S
    Zr147  O635      6.33928      .   S
    N634   O636      5.39072      .   S
    Zr146  O636      6.27737      .   S
    N634   O637      4.94592      .   S
    Zr170  O637      5.73704  1_545   S
    N634   O638      4.26893      .   S
    Zr171  O638      5.05299  1_545   S
    N634   O639      4.87153      .   S
    Zr178  O639      5.65126      .   S
    N634   O640      4.15659      .   S
    Zr179  O640      4.93032      .   S
    N641   O642      5.44013      .   S
    Zr151  O642      6.34741      .   S
    N641   O643      5.38417      .   S
    Zr150  O643      6.26127      .   S
    N641   O644      4.94771      .   S
    Zr192  O644      5.74678      .   S
    N641   O645      4.27109      .   S
    Zr193  O645      5.06174      .   S
    N641   O646      4.87263      .   S
    Zr206  O646      5.65069      .   S
    N641   O647      4.16462      .   S
    Zr207  O647      4.94073      .   S
    N648   O649      5.42436      .   S
    Zr150  O649      6.34155      .   S
    N648   O650      5.34614      .   S
    Zr152  O650      6.21162      .   S
    N648   O651      4.94852      .   S
    Zr172  O651      5.74592      .   S
    N648   O652      4.27578      .   S
    Zr173  O652      5.06716      .   S
    N648   O653      4.87992      .   S
    Zr180  O653      5.66496      .   S
    N648   O654      4.17172      .   S
    Zr181  O654      4.95218      .   S
    N655   O656      5.44989      .   S
    Zr152  O656      6.36774      .   S
    N655   O657      5.37859      .   S
    Zr151  O657      6.25105      .   S
    N655   O658      4.93702      .   S
    Zr236  O658      5.73386      .   S
    N655   O659      4.25992      .   S
    Zr237  O659      5.04882      .   S
    N655   O660      4.88798      .   S
    Zr244  O660      5.67096  1_554   S
    N655   O661      4.18481      .   S
    Zr245  O661      4.96281  1_554   S
    N662   O663      5.36362      .   S
    Zr156  O663      6.22452      .   S
    N662   O664      5.45016      .   S
    Zr155  O664      6.36886      .   S
    N662   O665      4.88892      .   S
    Zr166  O665      5.67313  1_655   S
    N662   O666      4.19033      .   S
    Zr167  O666      4.97144  1_655   S
    N662   O667      4.93711      .   S
    Zr160  O667      5.72849      .   S
    N662   O668      4.25193      .   S
    Zr161  O668      5.03387      .   S
    N669   O670      5.34971      .   S
    Zr155  O670      6.22565      .   S
    N669   O671      5.40835      .   S
    Zr157  O671      6.31487      .   S
    N669   O672      4.87844      .   S
    Zr202  O672      5.66271      .   S
    N669   O673      4.17628      .   S
    Zr203  O673      4.95589      .   S
    N669   O674      4.92163      .   S
    Zr186  O674      5.70923  1_655   S
    N669   O675      4.24460      .   S
    Zr187  O675      5.02902  1_655   S
    N676   O677      5.37000      .   S
    Zr157  O677      6.23946      .   S
    N676   O678      5.44824      .   S
    Zr156  O678      6.36772      .   S
    N676   O679      4.87575      .   S
    Zr212  O679      5.65502      .   S
    N676   O680      4.16650      .   S
    Zr213  O680      4.94193      .   S
    N676   O681      4.94771      .   S
    Zr220  O681      5.74205      .   S
    N676   O682      4.27297      .   S
    Zr221  O682      5.06020      .   S
    N683   O684      4.93518      .   S
    Zr160  O684      5.72178  1_565   S
    N683   O685      4.25010      .   S
    Zr161  O685      5.02915  1_565   S
    N683   O686      5.42680      .   S
    Zr36   O686      6.32606      .   S
    N683   O687      5.38224      .   S
    Zr35   O687      6.26154      .   S
    N683   O688      4.88291      .   S
    Zr164  O688      5.66362  1_655   S
    N683   O689      4.17940      .   S
    Zr165  O689      4.95771  1_655   S
    N690   O691      4.91589      .   S
    Zr162  O691      5.71181  1_545   S
    N690   O692      4.23418      .   S
    Zr163  O692      5.02867  1_545   S
    N690   O693      5.38378      .   S
    Zr16   O693      6.27856      .   S
    N690   O694      5.39863      .   S
    Zr15   O694      6.29191      .   S
    N690   O695      4.90956      .   S
    Zr166  O695      5.68950      .   S
    N690   O696      4.20718      .   S
    Zr167  O696      4.97881      .   S
    N697   O698      4.88907      .   S
    Zr164  O698      5.67173  1_655   S
    N697   O699      4.18427      .   S
    Zr165  O699      4.96409  1_655   S
    N697   O700      5.40288      .   S
    Zr52   O700      6.29239      .   S
    N697   O701      5.43561      .   S
    Zr51   O701      6.33851      .   S
    N697   O702      4.94247      .   S
    Zr172  O702      5.73042  1_556   S
    N697   O703      4.26058      .   S
    Zr173  O703      5.04329  1_556   S
    N704   O705      4.87755      .   S
    Zr166  O705      5.66051      .   S
    N704   O706      4.16918      .   S
    Zr167  O706      4.94873      .   S
    N704   O707      5.38997      .   S
    Zr72   O707      6.27170      .   S
    N704   O708      5.43586      .   S
    Zr71   O708      6.34292      .   S
    N704   O709      4.95751      .   S
    Zr178  O709      5.75659  1_556   S
    N704   O710      4.28796      .   S
    Zr179  O710      5.08080  1_556   S
    N711   O712      4.88660      .   S
    Zr172  O712      5.67229  1_556   S
    N711   O713      4.18287      .   S
    Zr173  O713      4.96248  1_556   S
    N711   O714      5.42407      .   S
    Zr65   O714      6.32842      .   S
    N711   O715      5.40922      .   S
    Zr67   O715      6.28832      .   S
    N711   O716      4.93319      .   S
    Zr160  O716      5.72493  1_565   S
    N711   O717      4.24644      .   S
    Zr161  O717      5.02785  1_565   S
    N718   O719      4.92754      .   S
    Zr178  O719      5.70915  1_556   S
    N718   O720      4.23682      .   S
    Zr179  O720      5.00978  1_556   S
    N718   O721      5.42125      .   S
    Zr45   O721      6.31284      .   S
    N718   O722      5.40727      .   S
    Zr47   O722      6.29846      .   S
    N718   O723      4.89067      .   S
    Zr162  O723      5.67368  1_545   S
    N718   O724      4.19200      .   S
    Zr163  O724      4.97194  1_545   S
    N725   O726      5.38997      .   S
    Zr0    O726      6.29473      .   S
    N725   O727      5.37463      .   S
    Zr1    O727      6.24930      .   S
    N725   O728      4.91050      .   S
    Zr252  O728      5.69040      .   S
    N725   O729      4.23164      .   S
    Zr253  O729      5.01060      .   S
    N725   O730      4.87849      .   S
    Zr240  O730      5.66527      .   S
    N725   O731      4.18077      .   S
    Zr241  O731      4.96381      .   S
    N732   O733      5.43217      .   S
    Zr17   O733      6.33076      .   S
    N732   O734      5.41341      .   S
    Zr16   O734      6.30975      .   S
    N732   O735      4.92471      .   S
    Zr186  O735      5.71775      .   S
    N732   O736      4.22854      .   S
    Zr187  O736      5.00870      .   S
    N732   O737      4.91164      .   S
    Zr200  O737      5.70853      .   S
    N732   O738      4.22575      .   S
    Zr201  O738      5.01741      .   S
    N739   O740      5.40946      .   S
    Zr21   O740      6.30262      .   S
    N739   O741      5.38076      .   S
    Zr20   O741      6.26702      .   S
    N739   O742      4.93012      .   S
    Zr254  O742      5.71424      .   S
    N739   O743      4.25204      .   S
    Zr255  O743      5.03320      .   S
    N739   O744      4.85809      .   S
    Zr242  O744      5.63076      .   S
    N739   O745      4.14570      .   S
    Zr243  O745      4.91775      .   S
    N746   O747      5.38207      .   S
    Zr0    O747      6.27516      .   S
    N746   O748      5.40185      .   S
    Zr2    O748      6.29350      .   S
    N746   O749      4.88451      .   S
    Zr198  O749      5.67193      .   S
    N746   O750      4.18575      .   S
    Zr199  O750      4.97083      .   S
    N746   O751      4.94789      .   S
    Zr190  O751      5.74640      .   S
    N746   O752      4.27271      .   S
    Zr191  O752      5.06345      .   S
    N753   O754      5.39331      .   S
    Zr6    O754      6.28256      .   S
    N753   O755      5.41870      .   S
    Zr5    O755      6.31755      .   S
    N753   O756      4.88454      .   S
    Zr228  O756      5.67453      .   S
    N753   O757      4.18213      .   S
    Zr229  O757      4.96715      .   S
    N753   O758      4.93542      .   S
    Zr216  O758      5.72618      .   S
    N753   O759      4.25516      .   S
    Zr217  O759      5.03776      .   S
    N760   O761      5.37830      .   S
    Zr2    O761      6.26059      .   S
    N760   O762      5.42047      .   S
    Zr1    O762      6.32415      .   S
    N760   O763      4.85908      .   S
    Zr210  O763      5.63310      .   S
    N760   O764      4.14963      .   S
    Zr211  O764      4.92248      .   S
    N760   O765      4.93564      .   S
    Zr224  O765      5.72361      .   S
    N760   O766      4.25546      .   S
    Zr225  O766      5.03578      .   S
    N767   O768      5.42993      .   S
    Zr10   O768      6.33590      .   S
    N767   O769      5.37682      .   S
    Zr12   O769      6.25018      .   S
    N767   O770      4.95383      .   S
    Zr246  O770      5.74884  1_554   S
    N767   O771      4.28146      .   S
    Zr247  O771      5.06850  1_554   S
    N767   O772      4.85291      .   S
    Zr238  O772      5.62572      .   S
    N767   O773      4.13086      .   S
    Zr239  O773      4.89819      .   S
    N774   O775      5.42371      .   S
    Zr5    O775      6.33251      .   S
    N774   O776      5.36867      .   S
    Zr7    O776      6.24414      .   S
    N774   O777      4.92381      .   S
    Zr174  O777      5.70897  1_554   S
    N774   O778      4.24719      .   S
    Zr175  O778      5.03028  1_554   S
    N774   O779      4.84813      .   S
    Zr168  O779      5.61341      .   S
    N774   O780      4.12793      .   S
    Zr169  O780      4.89165      .   S
    N781   O782      5.43148      .   S
    Zr7    O782      6.33824      .   S
    N781   O783      5.39212      .   S
    Zr6    O783      6.27908      .   S
    N781   O784      4.93922      .   S
    Zr234  O784      5.73648      .   S
    N781   O785      4.26591      .   S
    Zr235  O785      5.05613      .   S
    N781   O786      4.86841      .   S
    Zr248  O786      5.64521  1_554   S
    N781   O787      4.15282      .   S
    Zr249  O787      4.92321      .   S
    N788   O789      5.37506      .   S
    Zr11   O789      6.26227      .   S
    N788   O790      5.40107      .   S
    Zr10   O790      6.29783      .   S
    N788   O791      4.87456      .   S
    Zr204  O791      5.65862      .   S
    N788   O792      4.16986      .   S
    Zr205  O792      4.95087      .   S
    N788   O793      4.94644      .   S
    Zr192  O793      5.74094  1_455   S
    N788   O794      4.26970      .   S
    Zr193  O794      5.05572  1_455   S
    N795   O796      5.43366      .   S
    Zr12   O796      6.33629      .   S
    N795   O797      5.40245      .   S
    Zr11   O797      6.29187      .   S
    N795   O798      4.93824      .   S
    Zr180  O798      5.72881  1_455   S
    N795   O799      4.26841      .   S
    Zr181  O799      5.05711  1_455   S
    N795   O800      4.88194      .   S
    Zr176  O800      5.66353      .   S
    N795   O801      4.17452      .   S
    Zr177  O801      4.95176      .   S
    N802   O803      5.42261      .   S
    Zr15   O803      6.32518      .   S
    N802   O804      5.38118      .   S
    Zr17   O804      6.25932      .   S
    N802   O805      4.91643      .   S
    Zr222  O805      5.70430      .   S
    N802   O806      4.22808      .   S
    Zr223  O806      5.00689      .   S
    N802   O807      4.87438      .   S
    Zr214  O807      5.65286  1_545   S
    N802   O808      4.17315      .   S
    Zr215  O808      4.94964  1_545   S
    N809   O810      5.43818      .   S
    Zr20   O810      6.34282      .   S
    N809   O811      5.39104      .   S
    Zr22   O811      6.26977      .   S
    N809   O812      4.93066      .   S
    Zr200  O812      5.71464      .   S
    N809   O813      4.25368      .   S
    Zr201  O813      5.03725      .   S
    N809   O814      4.89908      .   S
    Zr188  O814      5.68698      .   S
    N809   O815      4.20297      .   S
    Zr189  O815      4.98882      .   S
    N816   O817      5.41031      .   S
    Zr22   O817      6.31332      .   S
    N816   O818      5.40577      .   S
    Zr21   O818      6.29273      .   S
    N816   O819      4.89268      .   S
    Zr208  O819      5.68385      .   S
    N816   O820      4.19084      .   S
    Zr209  O820      4.97509      .   S
    N816   O821      4.92563      .   S
    Zr222  O821      5.70989      .   S
    N816   O822      4.24182      .   S
    Zr223  O822      5.02148      .   S
    N823   O824      5.38149      .   S
    Zr26   O824      6.25807      .   S
    N823   O825      5.38925      .   S
    Zr25   O825      6.29091      .   S
    N823   O826      4.90984      .   S
    Zr230  O826      5.69290      .   S
    N823   O827      4.21373      .   S
    Zr231  O827      4.98733      .   S
    N823   O828      4.91060      .   S
    Zr218  O828      5.71067      .   S
    N823   O829      4.23461      .   S
    Zr219  O829      5.03351      .   S
    N830   O831      5.40585      .   S
    Zr25   O831      6.29478      .   S
    N830   O832      5.42909      .   S
    Zr27   O832      6.32092      .   S
    N830   O833      4.88746      .   S
    Zr176  O833      5.67243      .   S
    N830   O834      4.17645      .   S
    Zr177  O834      4.95465      .   S
    N830   O835      4.94159      .   S
    Zr170  O835      5.73587      .   S
    N830   O836      4.26122      .   S
    Zr171  O836      5.04930      .   S
    N837   O838      5.39104      .   S
    Zr27   O838      6.28041      .   S
    N837   O839      5.41153      .   S
    Zr26   O839      6.30550      .   S
    N837   O840      4.89114      .   S
    Zr232  O840      5.67590      .   S
    N837   O841      4.19921      .   S
    Zr233  O841      4.98114      .   S
    N837   O842      4.92034      .   S
    Zr246  O842      5.70529  1_554   S
    N837   O843      4.22418      .   S
    Zr247  O843      4.99730  1_554   S
    N844   O845      5.40658      .   S
    Zr31   O845      6.30163      .   S
    N844   O846      5.41373      .   S
    Zr30   O846      6.30411      .   S
    N844   O847      4.89521      .   S
    Zr206  O847      5.68436      .   S
    N844   O848      4.20434      .   S
    Zr207  O848      4.99061      .   S
    N844   O849      4.90713      .   S
    Zr194  O849      5.69016      .   S
    N844   O850      4.20874      .   S
    Zr195  O850      4.98243      .   S
    N851   O852      5.42505      .   S
    Zr30   O852      6.33196      .   S
    N851   O853      5.37065      .   S
    Zr32   O853      6.24426      .   S
    N851   O854      4.93142      .   S
    Zr248  O854      5.72568  1_554   S
    N851   O855      4.25055      .   S
    Zr249  O855      5.03599      .   S
    N851   O856      4.85526      .   S
    Zr236  O856      5.62635      .   S
    N851   O857      4.14011      .   S
    Zr237  O857      4.90838      .   S
    N858   O859      5.42671      .   S
    Zr32   O859      6.32714      .   S
    N858   O860      5.40105      .   S
    Zr31   O860      6.29352      .   S
    N858   O861      4.91322      .   S
    Zr182  O861      5.69831  1_655   S
    N858   O862      4.22557      .   S
    Zr183  O862      5.00451  1_655   S
    N858   O863      4.89714      .   S
    Zr174  O863      5.68704  1_554   S
    N858   O864      4.20380      .   S
    Zr175  O864      4.98889  1_554   S
    N865   O866      5.44061      .   S
    Zr35   O866      6.34513      .   S
    N865   O867      5.39429      .   S
    Zr37   O867      6.27614      .   S
    N865   O868      4.94776      .   S
    Zr224  O868      5.74347      .   S
    N865   O869      4.26059      .   S
    Zr225  O869      5.04273      .   S
    N865   O870      4.89341      .   S
    Zr212  O870      5.68087  1_565   S
    N865   O871      4.19851      .   S
    Zr213  O871      4.98332  1_565   S
    N872   O873      5.40922      .   S
    Zr37   O873      6.29988      .   S
    N872   O874      5.43530      .   S
    Zr36   O874      6.33061      .   S
    N872   O875      4.90590      .   S
    Zr184  O875      5.69455      .   S
    N872   O876      4.21090      .   S
    Zr185  O876      4.99603      .   S
    N872   O877      4.93873      .   S
    Zr198  O877      5.72917      .   S
    N872   O878      4.25722      .   S
    Zr199  O878      5.04190      .   S
    N879   O880      5.43245      .   S
    Zr41   O880      6.32313      .   S
    N879   O881      5.41783      .   S
    Zr40   O881      6.31267      .   S
    N879   O882      4.93876      .   S
    Zr238  O882      5.73018      .   S
    N879   O883      4.25356      .   S
    Zr239  O883      5.03927      .   S
    N879   O884      4.92021      .   S
    Zr232  O884      5.71653      .   S
    N879   O885      4.23707      .   S
    Zr233  O885      5.03171      .   S
    N886   O887      5.42868      .   S
    Zr40   O887      6.33703      .   S
    N886   O888      5.40766      .   S
    Zr42   O888      6.28397      .   S
    N886   O889      4.91804      .   S
    Zr196  O889      5.71502      .   S
    N886   O890      4.23537      .   S
    Zr197  O890      5.03078      .   S
    N886   O891      4.92450      .   S
    Zr204  O891      5.70942      .   S
    N886   O892      4.23085      .   S
    Zr205  O892      5.00903      .   S
    N893   O894      5.42084      .   S
    Zr42   O894      6.32142      .   S
    N893   O895      5.38568      .   S
    Zr41   O895      6.27020      .   S
    N893   O896      4.91533      .   S
    Zr218  O896      5.69529      .   S
    N893   O897      4.23514      .   S
    Zr219  O897      5.01339      .   S
    N893   O898      4.86706      .   S
    Zr226  O898      5.64187      .   S
    N893   O899      4.15076      .   S
    Zr227  O899      4.91851      .   S
    N900   O901      5.38218      .   S
    Zr46   O901      6.25960      .   S
    N900   O902      5.42427      .   S
    Zr45   O902      6.32429      .   S
    N900   O903      4.89069      .   S
    Zr214  O903      5.67701  1_545   S
    N900   O904      4.19537      .   S
    Zr215  O904      4.97844  1_545   S
    N900   O905      4.90697      .   S
    Zr208  O905      5.68883      .   S
    N900   O906      4.21115      .   S
    Zr209  O906      4.98543      .   S
    N907   O908      5.40163      .   S
    Zr47   O908      6.28874      .   S
    N907   O909      5.44097      .   S
    Zr46   O909      6.34772      .   S
    N907   O910      4.88130      .   S
    Zr242  O910      5.66728      .   S
    N907   O911      4.17233      .   S
    Zr243  O911      4.95284      .   S
    N907   O912      4.96063      .   S
    Zr250  O912      5.76008      .   S
    N907   O913      4.28718      .   S
    Zr251  O913      5.07601  1_556   S
    N914   O915      5.41141      .   S
    Zr51   O915      6.29022      .   S
    N914   O916      5.42800      .   S
    Zr50   O916      6.33416      .   S
    N914   O917      4.91931      .   S
    Zr190  O917      5.70137      .   S
    N914   O918      4.23449      .   S
    Zr191  O918      5.01210      .   S
    N914   O919      4.90482      .   S
    Zr184  O919      5.69889      .   S
    N914   O920      4.21026      .   S
    Zr185  O920      4.99740      .   S
    N921   O922      5.41823      .   S
    Zr50   O922      6.30954      .   S
    N921   O923      5.44353      .   S
    Zr52   O923      6.34120      .   S
    N921   O924      4.89210      .   S
    Zr244  O924      5.67709      .   S
    N921   O925      4.18420      .   S
    Zr245  O925      4.96415      .   S
    N921   O926      4.96295      .   S
    Zr252  O926      5.76685      .   S
    N921   O927      4.29227      .   S
    Zr253  O927      5.08705      .   S
    N928   O929      5.38904      .   S
    Zr56   O929      6.26490      .   S
    N928   O930      5.44063      .   S
    Zr55   O930      6.34741      .   S
    N928   O931      4.89397      .   S
    Zr168  O931      5.68344      .   S
    N928   O932      4.18471      .   S
    Zr169  O932      4.96555      .   S
    N928   O933      4.93812      .   S
    Zr182  O933      5.73334  1_655   S
    N928   O934      4.25954      .   S
    Zr183  O934      5.04898  1_655   S
    N935   O936      5.39324      .   S
    Zr55   O936      6.28517      .   S
    N935   O937      5.40797      .   S
    Zr57   O937      6.29588      .   S
    N935   O938      4.89364      .   S
    Zr220  O938      5.67891      .   S
    N935   O939      4.19816      .   S
    Zr221  O939      4.97977      .   S
    N935   O940      4.88979      .   S
    Zr228  O940      5.66301      .   S
    N935   O941      4.18760      .   S
    Zr229  O941      4.95645      .   S
    N942   O943      5.40508      .   S
    Zr57   O943      6.29008      .   S
    N942   O944      5.41537      .   S
    Zr56   O944      6.32036      .   S
    N942   O945      4.91705      .   S
    Zr194  O945      5.70613      .   S
    N942   O946      4.22623      .   S
    Zr195  O946      5.00644      .   S
    N942   O947      4.88869      .   S
    Zr202  O947      5.67563      .   S
    N942   O948      4.19980      .   S
    Zr203  O948      4.98673      .   S
    N949   O950      5.35387      .   S
    Zr61   O950      6.21123      .   S
    N949   O951      5.44064      .   S
    Zr60   O951      6.35572      .   S
    N949   O952      4.87966      .   S
    Zr236  O952      5.66497      .   S
    N949   O953      4.16885      .   S
    Zr237  O953      4.94599      .   S
    N949   O954      4.92690      .   S
    Zr234  O954      5.71609      .   S
    N949   O955      4.25562      .   S
    Zr235  O955      5.04397      .   S
    N956   O957      5.36805      .   S
    Zr60   O957      6.23546      .   S
    N956   O958      5.43556      .   S
    Zr62   O958      6.34267      .   S
    N956   O959      4.87412      .   S
    Zr202  O959      5.65539      .   S
    N956   O960      4.16461      .   S
    Zr203  O960      4.94033      .   S
    N956   O961      4.93534      .   S
    Zr206  O961      5.72847      .   S
    N956   O962      4.26601      .   S
    Zr207  O962      5.05778      .   S
    N963   O964      5.36671      .   S
    Zr62   O964      6.23635      .   S
    N963   O965      5.43938      .   S
    Zr61   O965      6.35406      .   S
    N963   O966      4.88170      .   S
    Zr216  O966      5.66385      .   S
    N963   O967      4.17771      .   S
    Zr217  O967      4.95549      .   S
    N963   O968      4.93332      .   S
    Zr220  O968      5.72072      .   S
    N963   O969      4.25018      .   S
    Zr221  O969      5.03043      .   S
    N970   O971      5.43004      .   S
    Zr66   O971      6.32280      .   S
    N970   O972      5.40962      .   S
    Zr65   O972      6.30222      .   S
    N970   O973      4.93750      .   S
    Zr212  O973      5.72642  1_565   S
    N970   O974      4.25767      .   S
    Zr213  O974      5.04219  1_565   S
    N970   O975      4.90687      .   S
    Zr210  O975      5.70119      .   S
    N970   O976      4.21148      .   S
    Zr211  O976      5.00057      .   S
    N977   O978      5.42986      .   S
    Zr67   O978      6.33735      .   S
    N977   O979      5.38079      .   S
    Zr66   O979      6.26062      .   S
    N977   O980      4.92781      .   S
    Zr240  O980      5.71474      .   S
    N977   O981      4.25346      .   S
    Zr241  O981      5.04103      .   S
    N977   O982      4.87017      .   S
    Zr244  O982      5.64753      .   S
    N977   O983      4.15548      .   S
    Zr245  O983      4.92748      .   S
    N984   O985      5.37001      .   S
    Zr71   O985      6.24300      .   S
    N984   O986      5.42494      .   S
    Zr70   O986      6.32850      .   S
    N984   O987      4.86709      .   S
    Zr188  O987      5.64248      .   S
    N984   O988      4.15283      .   S
    Zr189  O988      4.92257      .   S
    N984   O989      4.91853      .   S
    Zr186  O989      5.70450      .   S
    N984   O990      4.23622      .   S
    Zr187  O990      5.01855      .   S
    N991   O992      5.40765      .   S
    Zr70   O992      6.29805      .   S
    N991   O993      5.38907      .   S
    Zr72   O993      6.27505      .   S
    N991   O994      4.93154      .   S
    Zr250  O994      5.72186      .   S
    N991   O995      4.24827      .   S
    Zr251  O995      5.02961  1_556   S
    N991   O996      4.89240      .   S
    Zr254  O996      5.68287      .   S
    N991   O997      4.19164      .   S
    Zr255  O997      4.97401      .   S
    N998   O999      5.42723      .   S
    Zr76   O999      6.32613      .   S
    N998   O1000     5.39699      .   S
    Zr75   O1000     6.28533      .   S
    N998   O1001     4.92100      .   S
    Zr170  O1001     5.70744      .   S
    N998   O1002     4.23146      .   S
    Zr171  O1002     5.01114      .   S
    N998   O1003     4.90516      .   S
    Zr180  O1003     5.69808  1_455   S
    N998   O1004     4.21523      .   S
    Zr181  O1004     5.00370  1_455   S
    N1005  O1006     5.40568      .   S
    Zr75   O1006     6.29923      .   S
    N1005  O1007     5.42543      .   S
    Zr77   O1007     6.32015      .   S
    N1005  O1008     4.90103      .   S
    Zr226  O1008     5.69385      .   S
    N1005  O1009     4.20728      .   S
    Zr227  O1009     4.99510      .   S
    N1005  O1010     4.92967      .   S
    Zr230  O1010     5.72612      .   S
    N1005  O1011     4.24594      .   S
    Zr231  O1011     5.03301      .   S
    N1012  O1013     5.43171      .   S
    Zr77   O1013     6.33876      .   S
    N1012  O1014     5.37786      .   S
    Zr76   O1014     6.25494      .   S
    N1012  O1015     4.92685      .   S
    Zr192  O1015     5.71572  1_455   S
    N1012  O1016     4.24017      .   S
    Zr193  O1016     5.01909  1_455   S
    N1012  O1017     4.86894      .   S
    Zr196  O1017     5.64324      .   S
    N1012  O1018     4.16392      .   S
    Zr197  O1018     4.93673      .   S
    N1019  O1020     5.37451      .   S
    Zr81   O1020     6.24755      .   S
    N1019  O1021     5.42675      .   S
    Zr80   O1021     6.33254      .   S
    N1019  O1022     4.86338      .   S
    Zr232  O1022     5.64167      .   S
    N1019  O1023     4.15464      .   S
    Zr233  O1023     4.93031      .   S
    N1019  O1024     4.93062      .   S
    Zr236  O1024     5.72299      .   S
    N1019  O1025     4.26263      .   S
    Zr237  O1025     5.05351      .   S
    N1026  O1027     5.39595      .   S
    Zr80   O1027     6.29321      .   S
    N1026  O1028     5.37109      .   S
    Zr82   O1028     6.25874      .   S
    N1026  O1029     4.94748      .   S
    Zr224  O1029     5.74409      .   S
    N1026  O1030     4.26369      .   S
    Zr225  O1030     5.04715      .   S
    N1026  O1031     4.86404      .   S
    Zr218  O1031     5.64702      .   S
    N1026  O1032     4.15492      .   S
    Zr219  O1032     4.93544      .   S
    N1033  O1034     5.39644      .   S
    Zr82   O1034     6.28547      .   S
    N1033  O1035     5.42716      .   S
    Zr81   O1035     6.32898      .   S
    N1033  O1036     4.88747      .   S
    Zr206  O1036     5.67393      .   S
    N1033  O1037     4.18934      .   S
    Zr207  O1037     4.97188      .   S
    N1033  O1038     4.92024      .   S
    Zr198  O1038     5.70560      .   S
    N1033  O1039     4.23446      .   S
    Zr199  O1039     5.01317      .   S
