# CIF file generated by openbabel 2.4.90, see http://openbabel.sf.net
data_I
_chemical_name_common ''
_cell_length_a 14.76
_cell_length_b 14.768
_cell_length_c 14.7681
_cell_angle_alpha 119.862
_cell_angle_beta 119.897
_cell_angle_gamma 90.143
_space_group_name_H-M_alt 'P 1'
_space_group_name_Hall 'P 1'
loop_
    _symmetry_equiv_pos_as_xyz
    x,y,z
loop_
    _atom_site_label
    _atom_site_type_symbol
    _atom_site_fract_x
    _atom_site_fract_y
    _atom_site_fract_z
    _atom_site_occupancy
    C0      C    0.10953   0.12167   0.98732   1.000
    C1      C    0.87102   0.88213   0.74782   1.000
    C2      C    0.87258   0.11833   0.99071   1.000
    C3      C    0.11437   0.11753   0.22665   1.000
    C4      C    0.11279   0.88109   0.98312   1.000
    C5      C    0.87625   0.87842   0.98790   1.000
    C6      C    0.53260   0.02049   0.75924   1.000
    C7      C    0.99758   0.96010   0.94932   1.000
    C8      C    0.78104   0.10166   0.34449   1.000
    C9      C    0.97039   0.89608   0.72029   1.000
    C10     C    0.70288   0.81056   0.38102   1.000
    C11     C    0.96078   0.90042   0.97431   1.000
    C12     C    0.90735   0.83093   0.45317   1.000
    C13     C    0.43608   0.37272   0.52360   1.000
    C14     C    0.16317   0.63409   0.70597   1.000
    C15     C    0.35303   0.07802   0.51815   1.000
    C16     C    0.61974   0.90632   0.45314   1.000
    C17     C    0.36220   0.83256   0.91250   1.000
    C18     C    0.89454   0.09613   0.80162   1.000
    C19     C    0.13211   0.40869   0.99191   1.000
    C20     C    0.90124   0.09010   0.17789   1.000
    C21     C    0.27503   0.09536   0.17283   1.000
    C22     C    0.90032   0.71810   0.79734   1.000
    C23     C    0.43616   0.11376   0.71772   1.000
    C24     C    0.58136   0.17950   0.80582   1.000
    C25     C    0.53332   0.04975   0.77040   1.000
    C26     C    0.37569   0.55238   0.25412   1.000
    C27     C    0.25993   0.45533   0.20359   1.000
    C28     C    0.35366   0.40738   0.16695   1.000
    C29     C    0.45665   0.71919   0.85532   1.000
    C30     C    0.83259   0.37884   0.26540   1.000
    C31     C    0.60218   0.78719   0.97513   1.000
    C32     C    0.54662   0.75566   0.82246   1.000
    C33     C    0.13256   0.27620   0.72441   1.000
    C34     C    0.18762   0.21644   0.81151   1.000
    C35     C    0.05952   0.23642   0.77227   1.000
    C36     C    0.27652   0.54260   0.66236   1.000
    C37     C    0.23477   0.44723   0.50217   1.000
    C38     C    0.21223   0.39784   0.57781   1.000
    C39     C    0.77169   0.48473   0.00935   1.000
    C40     C    0.85118   0.42458   0.08822   1.000
    C41     C    0.76180   0.34315   0.92076   1.000
    C42     C    0.72059   0.47285   0.30481   1.000
    C43     C    0.75764   0.56147   0.46377   1.000
    C44     C    0.78605   0.61874   0.39772   1.000
    C45     C    0.59747   0.45716   0.72217   1.000
    C46     C    0.71533   0.55037   0.77158   1.000
    C47     C    0.62421   0.60297   0.81057   1.000
    C48     C    0.81193   0.77352   0.16717   1.000
    C49     C    0.53659   0.86826   0.25388   1.000
    C50     C    0.44321   0.93554   0.20252   1.000
    C51     C    0.39062   0.80602   0.16476   1.000
    C52     C    0.87244   0.71485   0.25466   1.000
    C53     C    0.94155   0.75834   0.20548   1.000
    C54     C    0.22701   0.52836   0.99225   1.000
    C55     C    0.23004   0.66843   0.07325   1.000
    C56     C    0.14633   0.58233   0.90562   1.000
    C57     C    0.36793   0.19980   0.97194   1.000
    C58     C    0.51405   0.26828   0.08675   1.000
    C59     C    0.42924   0.23623   0.12746   1.000
    C60     C    0.85997   0.59799   0.99680   1.000
    C61     C    0.09268   0.16075   0.52484   1.000
    C62     C    0.53947   0.63720   0.45325   1.000
    C63     C    0.61072   0.15655   0.03666   1.000
    C64     C    0.80257   0.02387   0.82193   1.000
    C65     C    0.47489   0.39974   0.98370   1.000
    C66     C    0.63981   0.44693   0.91460   1.000
    C67     C    0.23105   0.88835   0.20045   1.000
    C68     C    0.80582   0.11424   0.26326   1.000
    C69     C    0.70134   0.54414   0.85277   1.000
    C70     C    0.79357   0.08882   0.33134   1.000
    C71     C    0.51021   0.61414   0.04127   1.000
    C72     C    0.36649   0.63882   0.30006   1.000
    C73     C    0.36064   0.51435   0.73487   1.000
    C74     C    0.34309   0.53570   0.95844   1.000
    C75     C    0.02070   0.86428   0.08660   1.000
    C76     C    0.19426   0.13396   0.64376   1.000
    C77     C    0.95236   0.27167   0.33209   1.000
    C78     C    0.71961   0.98271   0.84851   1.000
    C79     C    0.35552   0.54379   0.27916   1.000
    C80     C    0.63857   0.68019   0.61264   1.000
    C81     C    0.52034   0.22184   0.70812   1.000
    C82     C    0.22576   0.21181   0.92888   1.000
    C83     C    0.96958   0.84671   0.28620   1.000
    C84     C    0.24476   0.38566   0.63649   1.000
    C85     C    0.65815   0.98580   0.05245   1.000
    C86     C    0.44016   0.75706   0.02175   1.000
    C87     C    0.83073   0.04282   0.22502   1.000
    C88     C    0.42614   0.02440   0.07097   1.000
    C89     C    0.18745   0.24262   0.05175   1.000
    C90     C    0.90933   0.75059   0.52635   1.000
    C91     C    0.27597   0.84649   0.24692   1.000
    C92     C    0.67349   0.52319   0.39247   1.000
    C93     C    0.56425   0.54648   0.18329   1.000
    C94     C    0.39714   0.55328   0.80077   1.000
    C95     C    0.65663   0.40164   0.73561   1.000
    C96     C    0.97505   0.91430   0.36281   1.000
    C97     C    0.46265   0.77625   0.80412   1.000
    C98     C    0.77389   0.24798   0.36055   1.000
    C99     C    0.49736   0.08383   0.08066   1.000
    C100    C    0.34097   0.26688   0.68070   1.000
    C101    C    0.00914   0.17003   0.35988   1.000
    C102    C    0.05434   0.73913   0.16637   1.000
    C103    C    0.85171   0.84583   0.82281   1.000
    C104    C    0.06121   0.02970   0.69812   1.000
    C105    C    0.94355   0.91201   0.52393   1.000
    C106    C    0.81029   0.17491   0.62111   1.000
    C107    C    0.53866   0.40160   0.62274   1.000
    C108    C    0.33544   0.47915   0.42080   1.000
    C109    C    0.42844   0.89268   0.23395   1.000
    C110    C    0.30739   0.39058   0.76176   1.000
    C111    C    0.60273   0.26813   0.90436   1.000
    C112    C    0.04568   0.38999   0.78795   1.000
    C113    C    0.97406   0.97124   0.89668   1.000
    C114    C    0.68318   0.36139   0.68933   1.000
    C115    C    0.16542   0.13401   0.64593   1.000
    C116    C    0.78379   0.54616   0.40109   1.000
    C117    C    0.17681   0.58291   0.99068   1.000
    C118    C    0.89010   0.77821   0.24186   1.000
    C119    C    0.62747   0.53363   0.73530   1.000
    C120    C    0.44248   0.20626   0.05190   1.000
    C121    C    0.99426   0.00382   0.68567   1.000
    C122    C    0.68081   0.99614   0.68670   1.000
    C123    C    0.99095   0.30867   0.99681   1.000
    C124    C    0.99973   0.30677   0.29574   1.000
    C125    C    0.29161   0.00063   0.97646   1.000
    C126    C    0.00050   0.69733   0.99050   1.000
    C127    C    0.00034   0.98959   0.29022   1.000
    C128    C    0.29592   0.99371   0.28650   1.000
    C129    C    0.68647   0.69736   0.68578   1.000
    C130    C    0.68561   0.99134   0.98132   1.000
    C131    C    0.29188   0.30953   0.28933   1.000
    C132    C    0.99341   0.70173   0.67748   1.000
    C133    C    0.99924   0.00407   0.58729   1.000
    C134    C    0.57825   0.99485   0.58578   1.000
    C135    C    0.99027   0.40998   0.99724   1.000
    C136    C    0.00385   0.41159   0.39699   1.000
    C137    C    0.39234   0.00155   0.97569   1.000
    C138    C    0.00280   0.59768   0.99340   1.000
    C139    C    0.99973   0.98781   0.39016   1.000
    C140    C    0.39517   0.99037   0.38598   1.000
    C141    C    0.58500   0.59683   0.58709   1.000
    C142    C    0.58118   0.98786   0.97452   1.000
    C143    C    0.39090   0.41251   0.38932   1.000
    C144    C    0.99163   0.60065   0.57470   1.000
    C145    C    0.94740   0.90298   0.46698   1.000
    C146    C    0.50308   0.04475   0.60773   1.000
    C147    C    0.07301   0.45203   0.99366   1.000
    C148    C    0.90493   0.43636   0.36312   1.000
    C149    C    0.46147   0.09631   0.01114   1.000
    C150    C    0.45987   0.88479   0.23990   1.000
    C151    C    0.91980   0.55537   0.99649   1.000
    C152    C    0.05247   0.08870   0.51088   1.000
    C153    C    0.46985   0.93966   0.36368   1.000
    C154    C    0.51549   0.57756   0.46674   1.000
    C155    C    0.55463   0.08575   0.00923   1.000
    C156    C    0.41794   0.48682   0.36563   1.000
    C157    C    0.89503   0.52940   0.44832   1.000
    C158    C    0.46005   0.43222   0.50997   1.000
    C159    C    0.09089   0.57658   0.60819   1.000
    C160    C    0.51113   0.89261   0.93723   1.000
    C161    C    0.08299   0.54542   0.99245   1.000
    C162    C    0.94596   0.89121   0.36630   1.000
    C163    C    0.41304   0.04084   0.50571   1.000
    C164    C    0.05409   0.10050   0.61168   1.000
    C165    C    0.55979   0.94351   0.46568   1.000
    C166    C    0.10084   0.48373   0.52279   1.000
    C167    C    0.41821   0.90326   0.93965   1.000
    C168    C    0.55779   0.52279   0.61105   1.000
    C169    C    0.91067   0.46281   0.99938   1.000
    C170    C    0.81871   0.42710   0.00478   1.000
    C171    C    0.21217   0.46734   0.56879   1.000
    C172    C    0.11131   0.21360   0.73648   1.000
    C173    C    0.52978   0.78250   0.89483   1.000
    C174    C    0.34803   0.47522   0.24107   1.000
    C175    C    0.51363   0.09953   0.73178   1.000
    C176    C    0.72229   0.83032   0.81137   1.000
    C177    C    0.67271   0.49806   0.65408   1.000
    C178    C    0.99707   0.11114   0.29427   1.000
    C179    C    0.51762   0.01231   0.58913   1.000
    C180    C    0.66117   0.71827   0.77640   1.000
    C181    C    0.13434   0.80370   0.37728   1.000
    C182    C    0.39876   0.84787   0.38785   1.000
    C183    C    0.13204   0.87957   0.61815   1.000
    C184    C    0.03690   0.44696   0.62813   1.000
    C185    C    0.59198   0.34936   0.20495   1.000
    C186    C    0.41708   0.11588   0.20135   1.000
    C187    C    0.70112   0.14497   0.31405   1.000
    C188    C    0.90395   0.05042   0.51721   1.000
    C189    C    0.04069   0.44033   0.22695   1.000
    C190    C    0.82760   0.45914   0.40480   1.000
    C191    C    0.05375   0.33636   0.44424   1.000
    C192    C    0.06016   0.28752   0.51520   1.000
    C193    C    0.23326   0.61414   0.41004   1.000
    C194    C    0.84584   0.64625   0.61851   1.000
    C195    C    0.57768   0.66286   0.35998   1.000
    C196    C    0.09418   0.40390   0.08531   1.000
    C197    C    0.30013   0.32898   0.95222   1.000
    C198    C    0.98618   0.35272   0.48385   1.000
    C199    C    0.75416   0.37181   0.65387   1.000
    C200    C    0.46716   0.29052   0.22799   1.000
    C201    C    0.06841   0.46252   0.73421   1.000
    C202    C    0.09136   0.41910   0.61102   1.000
    C203    C    0.07895   0.30030   0.93710   1.000
    C204    C    0.77475   0.26701   0.75105   1.000
    C205    C    0.71581   0.32145   0.64828   1.000
    C206    C    0.93171   0.37003   0.06350   1.000
    C207    C    0.46689   0.11253   0.92637   1.000
    C208    C    0.37867   0.69665   0.89036   1.000
    C209    C    0.60053   0.55277   0.10316   1.000
    C210    C    0.94263   0.80205   0.91691   1.000
    C211    C    0.09501   0.90029   0.91361   1.000
    C212    C    0.06160   0.67185   0.06915   1.000
    C213    C    0.10443   0.63317   0.40191   1.000
    C214    C    0.85000   0.24341   0.07419   1.000
    C215    C    0.34675   0.65709   0.71008   1.000
    C216    C    0.84878   0.11833   0.68229   1.000
    C217    C    0.62937   0.60210   0.50835   1.000
    C218    C    0.30641   0.51773   0.59774   1.000
    C219    C    0.48566   0.96124   0.95364   1.000
    C220    C    0.26277   0.11815   0.39174   1.000
    C221    C    0.72825   0.97157   0.68809   1.000
    C222    C    0.82589   0.24912   0.54511   1.000
    C223    C    0.19797   0.18673   0.36683   1.000
    C224    C    0.95036   0.74527   0.17388   1.000
    C225    C    0.83903   0.81694   0.09740   1.000
    C226    C    0.23343   0.05109   0.33740   1.000
    C227    C    0.51821   0.01889   0.78727   1.000
    C228    C    0.30421   0.64449   0.98977   1.000
    C229    C    0.84065   0.05150   0.16435   1.000
    C230    C    0.38875   0.48644   0.16751   1.000
    C231    C    0.13046   0.80357   0.03770   1.000
    C232    C    0.76527   0.88639   0.43547   1.000
    C233    C    0.19183   0.93479   0.71472   1.000
    C234    C    0.63242   0.75594   0.07562   1.000
    C235    C    0.08814   0.20548   0.55205   1.000
    C236    C    0.04201   0.14912   0.08852   1.000
    C237    C    0.04068   0.95225   0.88625   1.000
    C238    C    0.04480   0.94908   0.08540   1.000
    C239    C    0.06910   0.08104   0.80290   1.000
    C240    C    0.72229   0.92098   0.64840   1.000
    C241    C    0.91437   0.26630   0.99563   1.000
    C242    C    0.07406   0.26390   0.33125   1.000
    C243    C    0.25370   0.92284   0.97724   1.000
    C244    C    0.07447   0.73712   0.98657   1.000
    C245    C    0.92273   0.91436   0.17331   1.000
    C246    C    0.25833   0.07231   0.32612   1.000
    C247    C    0.72883   0.73706   0.80299   1.000
    C248    C    0.72802   0.91670   0.98432   1.000
    C249    C    0.25489   0.26793   0.32749   1.000
    C250    C    0.07146   0.74005   0.79345   1.000
    C251    C    0.25282   0.26804   0.17246   1.000
    C252    C    0.91659   0.74259   0.64339   1.000
    C253    C    0.72720   0.07181   0.98672   1.000
    C254    C    0.92252   0.73569   0.99027   1.000
    C255    C    0.07636   0.06844   0.32826   1.000
    C256    C    0.25544   0.91888   0.16917   1.000
    C257    C    0.91559   0.92684   0.64643   1.000
    C258    C    0.72244   0.07324   0.80361   1.000
    C259    C    0.91956   0.26530   0.17953   1.000
    C260    C    0.25082   0.07719   0.97810   1.000
    C261    C    0.72431   0.73669   0.64651   1.000
    C262    C    0.06809   0.26948   0.99539   1.000
    C263    C    0.92247   0.06868   0.85451   1.000
    C264    C    0.92760   0.06430   0.12388   1.000
    C265    C    0.19469   0.06794   0.11983   1.000
    C266    C    0.92636   0.79837   0.85078   1.000
    C267    C    0.84360   0.94945   0.88927   1.000
    C268    C    0.85444   0.84910   0.41320   1.000
    C269    C    0.10460   0.78397   0.36985   1.000
    C270    C    0.21332   0.16325   0.33043   1.000
    C271    C    0.30464   0.28626   0.15184   1.000
    C272    C    0.22003   0.29244   0.13654   1.000
    C273    C    0.92092   0.37636   0.74276   1.000
    C274    C    0.00371   0.39229   0.50897   1.000
    C275    C    0.02784   0.23610   0.72436   1.000
    C276    C    0.60702   0.58858   0.03823   1.000
    C277    C    0.57751   0.64228   0.53381   1.000
    C278    C    0.78217   0.64116   0.45105   1.000
    C279    C    0.66720   0.37517   0.83779   1.000
    C280    C    0.99116   0.39555   0.16655   1.000
    C281    C    0.67448   0.29834   0.86785   1.000
    C282    C    0.01227   0.22404   0.02653   1.000
    C283    C    0.38025   0.42721   0.84448   1.000
    C284    C    0.92760   0.38355   0.24967   1.000
    C285    C    0.40878   0.61461   0.93255   1.000
    C286    C    0.77836   0.65045   0.26247   1.000
    C287    C    0.11286   0.71365   0.08487   1.000
    C288    C    0.10211   0.53783   0.66121   1.000
    C289    C    0.75428   0.19800   0.60069   1.000
    C290    C    0.91532   0.38890   0.89751   1.000
    C291    C    0.89527   0.54553   0.72633   1.000
    C292    C    0.45545   0.44576   0.46953   1.000
    C293    C    0.38992   0.49234   0.79278   1.000
    C294    C    0.76390   0.33511   0.54463   1.000
    C295    C    0.76944   0.05780   0.33739   1.000
    C296    C    0.45849   0.29858   0.30054   1.000
    C297    C    0.81996   0.20583   0.93904   1.000
    C298    C    0.80852   0.21210   0.74468   1.000
    C299    C    0.84189   0.85417   0.25217   1.000
    O300    O    0.79520   0.45591   0.00706   1.000
    O301    O    0.87521   0.39856   0.03414   1.000
    O302    O    0.83494   0.42584   0.04650   1.000
    O303    O    0.86469   0.44495   0.00208   1.000
    O304    O    0.50805   0.09103   0.01018   1.000
    O305    O    0.58267   0.12115   0.02294   1.000
    O306    O    0.51076   0.09914   0.96780   1.000
    O307    O    0.56790   0.03680   0.99187   1.000
    O308    O    0.47941   0.09007   0.04590   1.000
    O309    O    0.46418   0.10442   0.96875   1.000
    O310    O    0.42690   0.04893   0.99341   1.000
    O311    O    0.40941   0.72686   0.95606   1.000
    O312    O    0.02714   0.18658   0.05752   1.000
    O313    O    0.06090   0.17286   0.00692   1.000
    O314    O    0.12166   0.75861   0.06129   1.000
    O315    O    0.12163   0.84233   0.01041   1.000
    O316    O    0.10247   0.77034   0.01214   1.000
    O317    O    0.60378   0.57067   0.07070   1.000
    O318    O    0.20374   0.26753   0.09414   1.000
    O319    O    0.47826   0.23727   0.06932   1.000
    O320    O    0.45469   0.15939   0.98913   1.000
    O321    O    0.40521   0.20303   0.01192   1.000
    O322    O    0.61967   0.98683   0.01349   1.000
    O323    O    0.96144   0.38279   0.11502   1.000
    O324    O    0.92304   0.31816   0.02957   1.000
    O325    O    0.08723   0.69275   0.07701   1.000
    O326    O    0.05797   0.70549   0.11776   1.000
    O327    O    0.03105   0.68459   0.02982   1.000
    O328    O    0.03220   0.63477   0.03127   1.000
    O329    O    0.40924   0.01298   0.02333   1.000
    O330    O    0.20342   0.62567   0.03196   1.000
    O331    O    0.88478   0.25435   0.12686   1.000
    O332    O    0.83498   0.22462   0.00662   1.000
    O333    O    0.86129   0.18087   0.03245   1.000
    O334    O    0.08360   0.42797   0.03948   1.000
    O335    O    0.04257   0.35629   0.04106   1.000
    O336    O    0.04223   0.40694   0.04127   1.000
    O337    O    0.03275   0.90668   0.08600   1.000
    O338    O    0.00279   0.92475   0.02985   1.000
    O339    O    0.07577   0.13539   0.03792   1.000
    O340    O    0.88088   0.86565   0.13536   1.000
    O341    O    0.23486   0.08165   0.14633   1.000
    O342    O    0.44820   0.26337   0.17773   1.000
    O343    O    0.23642   0.28024   0.15450   1.000
    O344    O    0.27873   0.27715   0.16215   1.000
    O345    O    0.87094   0.07080   0.17112   1.000
    O346    O    0.83569   0.04716   0.19468   1.000
    O347    O    0.42524   0.84540   0.20233   1.000
    O348    O    0.01593   0.41794   0.19675   1.000
    O349    O    0.82691   0.81384   0.20967   1.000
    O350    O    0.24325   0.90361   0.18481   1.000
    O351    O    0.27568   0.95629   0.22783   1.000
    O352    O    0.96153   0.95197   0.23176   1.000
    O353    O    0.94596   0.75181   0.18968   1.000
    O354    O    0.95964   0.28603   0.23764   1.000
    O355    O    0.45154   0.91016   0.22121   1.000
    O356    O    0.30398   0.46527   0.22233   1.000
    O357    O    0.16384   0.14039   0.27854   1.000
    O358    O    0.46283   0.29455   0.26427   1.000
    O359    O    0.44416   0.88874   0.23692   1.000
    O360    O    0.49823   0.87652   0.24689   1.000
    O361    O    0.35178   0.50950   0.26011   1.000
    O362    O    0.86600   0.81619   0.24701   1.000
    O363    O    0.88127   0.74653   0.24826   1.000
    O364    O    0.92984   0.81246   0.26403   1.000
    O365    O    0.74062   0.73051   0.32175   1.000
    O366    O    0.79343   0.10795   0.30388   1.000
    O367    O    0.86876   0.40760   0.31426   1.000
    O368    O    0.27713   0.03301   0.30631   1.000
    O369    O    0.27338   0.28873   0.30841   1.000
    O370    O    0.99870   0.05036   0.29224   1.000
    O371    O    0.03835   0.02902   0.30924   1.000
    O372    O    0.00003   0.98870   0.34019   1.000
    O373    O    0.03671   0.08979   0.31126   1.000
    O374    O    0.00310   0.14058   0.32708   1.000
    O375    O    0.03689   0.28534   0.31349   1.000
    O376    O    0.97605   0.28922   0.31391   1.000
    O377    O    0.00179   0.35918   0.34636   1.000
    O378    O    0.75219   0.50950   0.35295   1.000
    O379    O    0.74108   0.12332   0.32927   1.000
    O380    O    0.73750   0.19648   0.33730   1.000
    O381    O    0.24588   0.06170   0.33176   1.000
    O382    O    0.20564   0.17499   0.34863   1.000
    O383    O    0.77524   0.07973   0.34094   1.000
    O384    O    0.24810   0.08462   0.36457   1.000
    O385    O    0.64028   0.73671   0.37050   1.000
    O386    O    0.96051   0.90275   0.36456   1.000
    O387    O    0.95439   0.42397   0.38005   1.000
    O388    O    0.89998   0.48288   0.40572   1.000
    O389    O    0.43251   0.96501   0.37483   1.000
    O390    O    0.51482   0.94159   0.41468   1.000
    O391    O    0.46671   0.53219   0.41618   1.000
    O392    O    0.94668   0.89709   0.41664   1.000
    O393    O    0.11947   0.79384   0.37356   1.000
    O394    O    0.73408   0.84847   0.40825   1.000
    O395    O    0.40410   0.01560   0.44584   1.000
    O396    O    0.36317   0.44583   0.40506   1.000
    O397    O    0.42318   0.42914   0.42943   1.000
    O398    O    0.02610   0.03825   0.45052   1.000
    O399    O    0.05235   0.44766   0.45989   1.000
    O400    O    0.78411   0.62995   0.42439   1.000
    O401    O    0.80570   0.50265   0.40294   1.000
    O402    O    0.78298   0.59366   0.42607   1.000
    O403    O    0.77071   0.55381   0.43243   1.000
    O404    O    0.16885   0.62365   0.40598   1.000
    O405    O    0.86132   0.49427   0.42656   1.000
    O406    O    0.88090   0.84002   0.43319   1.000
    O407    O    0.90092   0.87604   0.44009   1.000
    O408    O    0.01997   0.34454   0.46405   1.000
    O409    O    0.94333   0.56502   0.51151   1.000
    O410    O    0.58976   0.92491   0.45941   1.000
    O411    O    0.55849   0.63974   0.49353   1.000
    O412    O    0.56902   0.96918   0.52573   1.000
    O413    O    0.54650   0.60992   0.50028   1.000
    O414    O    0.94547   0.90750   0.49546   1.000
    O415    O    0.97332   0.95352   0.52714   1.000
    O416    O    0.45775   0.43899   0.48975   1.000
    O417    O    0.99494   0.37251   0.49641   1.000
    O418    O    0.02317   0.32012   0.49953   1.000
    O419    O    0.22347   0.45728   0.53548   1.000
    O420    O    0.38304   0.05943   0.51193   1.000
    O421    O    0.45806   0.04280   0.55672   1.000
    O422    O    0.04753   0.40570   0.55999   1.000
    O423    O    0.44807   0.40247   0.51678   1.000
    O424    O    0.50892   0.47750   0.56051   1.000
    O425    O    0.05328   0.09460   0.56128   1.000
    O426    O    0.95159   0.02724   0.55225   1.000
    O427    O    0.09587   0.53015   0.56549   1.000
    O428    O    0.09041   0.18312   0.53844   1.000
    O429    O    0.79489   0.29211   0.54487   1.000
    O430    O    0.75903   0.35346   0.59925   1.000
    O431    O    0.21220   0.43259   0.57330   1.000
    O432    O    0.25929   0.49253   0.58326   1.000
    O433    O    0.24434   0.50497   0.61557   1.000
    O434    O    0.04126   0.58861   0.59144   1.000
    O435    O    0.99252   0.65119   0.62609   1.000
    O436    O    0.54794   0.00358   0.58746   1.000
    O437    O    0.02666   0.05229   0.59948   1.000
    O438    O    0.99675   0.00395   0.63648   1.000
    O439    O    0.51035   0.02853   0.59843   1.000
    O440    O    0.32658   0.58741   0.65391   1.000
    O441    O    0.78229   0.18646   0.61090   1.000
    O442    O    0.50835   0.07214   0.66975   1.000
    O443    O    0.09650   0.55721   0.63470   1.000
    O444    O    0.12703   0.60533   0.65708   1.000
    O445    O    0.06413   0.43303   0.61957   1.000
    O446    O    0.10975   0.11726   0.62880   1.000
    O447    O    0.08270   0.15705   0.67408   1.000
    O448    O    0.66252   0.68878   0.64921   1.000
    O449    O    0.16193   0.90718   0.66643   1.000
    O450    O    0.88121   0.69442   0.63095   1.000
    O451    O    0.06951   0.49240   0.64467   1.000
    O452    O    0.05265   0.45474   0.68117   1.000
    O453    O    0.95500   0.72216   0.66043   1.000
    O454    O    0.95492   0.96533   0.66605   1.000
    O455    O    0.94299   0.91146   0.68336   1.000
    O456    O    0.70539   0.71702   0.66614   1.000
    O457    O    0.73498   0.34663   0.65108   1.000
    O458    O    0.69949   0.34142   0.66881   1.000
    O459    O    0.74528   0.29423   0.69967   1.000
    O460    O    0.72527   0.94627   0.66825   1.000
    O461    O    0.03244   0.72089   0.73546   1.000
    O462    O    0.82865   0.16522   0.71348   1.000
    O463    O    0.02773   0.01676   0.69189   1.000
    O464    O    0.03168   0.04243   0.74428   1.000
    O465    O    0.70765   0.71721   0.74438   1.000
    O466    O    0.70453   0.98385   0.68740   1.000
    O467    O    0.70162   0.03469   0.74515   1.000
    O468    O    0.47490   0.10665   0.72475   1.000
    O469    O    0.92070   0.88910   0.73406   1.000
    O470    O    0.61247   0.49539   0.72873   1.000
    O471    O    0.06957   0.22485   0.73042   1.000
    O472    O    0.04368   0.23626   0.74832   1.000
    O473    O    0.12194   0.24490   0.73044   1.000
    O474    O    0.52312   0.06001   0.74551   1.000
    O475    O    0.54749   0.13952   0.76880   1.000
    O476    O    0.67140   0.54200   0.75344   1.000
    O477    O    0.62584   0.56830   0.77293   1.000
    O478    O    0.66440   0.53888   0.79404   1.000
    O479    O    0.14947   0.21502   0.77399   1.000
    O480    O    0.79164   0.23956   0.74787   1.000
    O481    O    0.52541   0.01969   0.77326   1.000
    O482    O    0.34382   0.40890   0.80312   1.000
    O483    O    0.69500   0.72767   0.78970   1.000
    O484    O    0.39353   0.52281   0.79678   1.000
    O485    O    0.91334   0.75823   0.82406   1.000
    O486    O    0.90850   0.08241   0.82806   1.000
    O487    O    0.76251   0.04856   0.81277   1.000
    O488    O    0.49622   0.77937   0.84948   1.000
    O489    O    0.53820   0.76908   0.85864   1.000
    O490    O    0.67084   0.33675   0.85282   1.000
    O491    O    0.65351   0.41105   0.87620   1.000
    O492    O    0.79609   0.05052   0.91961   1.000
    O493    O    0.93449   0.80021   0.88384   1.000
    O494    O    0.49321   0.75084   0.87507   1.000
    O495    O    0.71814   0.32074   0.89431   1.000
    O496    O    0.06785   0.92627   0.89993   1.000
    O497    O    0.01913   0.95617   0.91778   1.000
    O498    O    0.85809   0.03389   0.93999   1.000
    O499    O    0.39373   0.65563   0.91146   1.000
    O500    O    0.56598   0.78484   0.93498   1.000
    O501    O    0.98582   0.96567   0.92300   1.000
    O502    O    0.95280   0.39944   0.94737   1.000
    O503    O    0.91300   0.42585   0.94844   1.000
    O504    O    0.16157   0.58262   0.94815   1.000
    O505    O    0.39021   0.86791   0.92607   1.000
    O506    O    0.10390   0.89069   0.94836   1.000
    O507    O    0.95170   0.85123   0.94561   1.000
    O508    O    0.07352   0.28489   0.96624   1.000
    O509    O    0.46467   0.89793   0.93844   1.000
    O510    O    0.49840   0.92692   0.94543   1.000
    O511    O    0.86717   0.23607   0.96734   1.000
    O512    O    0.45194   0.93225   0.94664   1.000
    O513    O    0.40527   0.95240   0.95767   1.000
    O514    O    0.97918   0.93026   0.96181   1.000
    O515    O    0.53342   0.97455   0.96408   1.000
    O516    O    0.91852   0.88942   0.98110   1.000
    O517    O    0.34198   0.00109   0.97607   1.000
    O518    O    0.27265   0.96173   0.97685   1.000
    O519    O    0.27122   0.03891   0.97728   1.000
    O520    O    0.70681   0.95402   0.98282   1.000
    O521    O    0.70640   0.03157   0.98402   1.000
    O522    O    0.03749   0.71722   0.98853   1.000
    O523    O    0.96151   0.71651   0.99038   1.000
    O524    O    0.20191   0.55564   0.99146   1.000
    O525    O    0.12990   0.56417   0.99156   1.000
    O526    O    0.10256   0.43036   0.99278   1.000
    O527    O    0.04290   0.57155   0.99292   1.000
    O528    O    0.07800   0.49872   0.99305   1.000
    O529    O    0.96130   0.57653   0.99494   1.000
    O530    O    0.03164   0.43100   0.99545   1.000
    O531    O    0.02952   0.28908   0.99610   1.000
    O532    O    0.88989   0.57668   0.99664   1.000
    O533    O    0.91524   0.50909   0.99793   1.000
    O534    O    0.95047   0.43639   0.99831   1.000
    O535    O    0.95729   0.13372   0.03961   1.000
    O536    O    0.07819   0.13332   0.15758   1.000
    O537    O    0.01980   0.05461   0.01892   1.000
    O538    O    0.07510   0.03696   0.93678   1.000
    O539    O    0.95585   0.91719   0.81703   1.000
    O540    O    0.07674   0.91667   0.93468   1.000
    O541    O    0.00553   0.92416   0.80327   1.000
    O542    O    0.00073   0.92633   0.93028   1.000
    O543    O    0.00737   0.96174   0.89147   1.000
    O544    O    0.07958   0.03330   0.15602   1.000
    O545    O    0.07880   0.91508   0.03426   1.000
    O546    O    0.96052   0.91375   0.03665   1.000
    O547    O    0.02119   0.95459   0.01736   1.000
    O548    O    0.08932   0.10136   0.89511   1.000
    O549    O    0.01974   0.98856   0.76160   1.000
    O550    O    0.06515   0.05537   0.75051   1.000
    O551    O    0.79666   0.90155   0.69811   1.000
    O552    O    0.70155   0.95856   0.66755   1.000
    O553    O    0.89347   0.19231   0.99317   1.000
    O554    O    0.95266   0.28749   0.99622   1.000
    O555    O    0.96332   0.24517   0.01108   1.000
    O556    O    0.09422   0.19071   0.27895   1.000
    O557    O    0.06391   0.30013   0.38774   1.000
    O558    O    0.18325   0.90196   0.98018   1.000
    O559    O    0.09363   0.80910   0.98484   1.000
    O560    O    0.09367   0.72539   0.03572   1.000
    O561    O    0.89949   0.89639   0.08060   1.000
    O562    O    0.18635   0.09492   0.27638   1.000
    O563    O    0.26055   0.09523   0.35893   1.000
    O564    O    0.23583   0.11778   0.32828   1.000
    O565    O    0.80254   0.80774   0.89544   1.000
    O566    O    0.72556   0.78369   0.80718   1.000
    O567    O    0.80214   0.89756   0.98611   1.000
    O568    O    0.18463   0.19273   0.27707   1.000
    O569    O    0.23410   0.21559   0.32896   1.000
    O570    O    0.09213   0.81057   0.88828   1.000
    O571    O    0.18118   0.19485   0.07989   1.000
    O572    O    0.22014   0.25533   0.11211   1.000
    O573    O    0.27235   0.28878   0.23089   1.000
    O574    O    0.89380   0.81236   0.69560   1.000
    O575    O    0.94349   0.81933   0.68184   1.000
    O576    O    0.79989   0.09507   0.98871   1.000
    O577    O    0.62990   0.04615   0.87298   1.000
    O578    O    0.89938   0.80705   0.98908   1.000
    O579    O    0.94165   0.81805   0.98229   1.000
    O580    O    0.09537   0.09298   0.27745   1.000
    O581    O    0.18411   0.89998   0.07614   1.000
    O582    O    0.19295   0.86122   0.10344   1.000
    O583    O    0.89331   0.90448   0.69712   1.000
    O584    O    0.79751   0.09578   0.89716   1.000
    O585    O    0.62752   0.04687   0.78142   1.000
    O586    O    0.72534   0.02240   0.74585   1.000
    O587    O    0.77120   0.13954   0.87133   1.000
    O588    O    0.89607   0.19181   0.08512   1.000
    O589    O    0.92358   0.32443   0.21460   1.000
    O590    O    0.18018   0.09943   0.98271   1.000
    O591    O    0.79766   0.80941   0.69717   1.000
    O592    O    0.68144   0.70844   0.62958   1.000
    O593    O    0.67684   0.66939   0.57743   1.000
    O594    O    0.08881   0.19558   0.99135   1.000
    O595    O    0.08114   0.33669   0.04035   1.000
    O596    O    0.04018   0.24676   0.01096   1.000
    O597    O    0.01600   0.09518   0.92092   1.000
    O598    O    0.89674   0.97540   0.80116   1.000
    O599    O    0.89753   0.09351   0.92261   1.000
    O600    O    0.96003   0.01439   0.90191   1.000
    O601    O    0.94643   0.98238   0.78740   1.000
    O602    O    0.90009   0.09131   0.05729   1.000
    O603    O    0.02098   0.09091   0.17526   1.000
    O604    O    0.90192   0.97136   0.05589   1.000
    O605    O    0.94419   0.98236   0.04909   1.000
    O606    O    0.91442   0.07720   0.15088   1.000
    O607    O    0.88412   0.05790   0.14411   1.000
    O608    O    0.15211   0.09481   0.05357   1.000
    O609    O    0.15453   0.09273   0.17324   1.000
    O610    O    0.15374   0.97451   0.05147   1.000
    O611    O    0.09614   0.01402   0.03457   1.000
    O612    O    0.89869   0.84025   0.79930   1.000
    O613    O    0.01958   0.83973   0.91695   1.000
    O614    O    0.90130   0.83839   0.91934   1.000
    O615    O    0.96197   0.87923   0.90005   1.000
    O616    O    0.94357   0.84939   0.91254   1.000
    O617    O    0.88904   0.82210   0.83679   1.000
    O618    O    0.85731   0.91579   0.81854   1.000
    O619    O    0.85992   0.91393   0.93858   1.000
    O620    O    0.92059   0.95477   0.91929   1.000
    O621    O    0.90219   0.92493   0.93179   1.000
    O622    O    0.84766   0.89764   0.85604   1.000
    O623    O    0.77866   0.82983   0.39711   1.000
    O624    O    0.89900   0.88056   0.46857   1.000
    O625    O    0.80986   0.86774   0.42434   1.000
    O626    O    0.23804   0.14070   0.36109   1.000
    O627    O    0.22338   0.10717   0.33392   1.000
    O628    O    0.20708   0.20396   0.06958   1.000
    O629    O    0.26233   0.28935   0.14419   1.000
    O630    O    0.16478   0.20705   0.06193   1.000
    O631    O    0.25595   0.30098   0.21293   1.000
    O632    O    0.94243   0.17119   0.00862   1.000
    O633    O    0.00161   0.26636   0.01167   1.000
    O634    O    0.78151   0.07331   0.33437   1.000
    O635    O    0.73528   0.10138   0.32572   1.000
    O636    O    0.84627   0.16208   0.96488   1.000
loop_
    _geom_bond_atom_site_label_1
    _geom_bond_atom_site_label_2
    _geom_bond_distance
    _geom_bond_site_symmetry_2
    _ccdc_geom_bond_type
    C170   O300      0.54840      .   S
    C39    O300      0.54840      .   S
    C170   O301      0.94040      .   S
    C206   O301      0.94040      .   S
    C170   O302      0.54921      .   S
    C40    O302      0.54921      .   S
    C170   O303      0.75383      .   S
    C169   O303      0.75383  1_556   S
    C155   O304      0.69843      .   S
    C149   O304      0.69843      .   S
    C155   O305      0.54367      .   S
    C63    O305      0.54367      .   S
    C155   O306      0.74758  1_554   S
    C207   O306      0.74758      .   S
    C155   O307      0.70202  1_554   S
    C142   O307      0.70202  1_565   S
    C149   O308      0.50382      .   S
    C99    O308      0.50382      .   S
    C149   O309      0.71227  1_554   S
    C207   O309      0.71227      .   S
    C149   O310      0.70788  1_554   S
    C137   O310      0.70788      .   S
    C86    O311      0.68943  1_554   S
    C208   O311      0.68943      .   S
    C282   O312      0.84641      .   S
    C236   O312      0.84641      .   S
    C282   O313      1.07811      .   S
    C0     O313      1.07811  1_556   S
    C231   O314      0.92409      .   S
    C287   O314      0.92409      .   S
    C231   O315      0.82754      .   S
    C4     O315      0.82754  1_556   S
    C231   O316      0.46155      .   S
    C244   O316      0.46155  1_556   S
    C276   O317      0.67166      .   S
    C209   O317      0.67166      .   S
    C89    O318      0.45302      .   S
    C272   O318      0.45302      .   S
    C120   O319      0.54851      .   S
    C58    O319      0.54851      .   S
    C120   O320      0.94811  1_554   S
    C207   O320      0.94811      .   S
    C120   O321      0.54915      .   S
    C57    O321      0.54915  1_556   S
    C85    O322      0.58049      .   S
    C142   O322      0.58049  1_556   S
    C206   O323      0.57528      .   S
    C280   O323      0.57528      .   S
    C206   O324      0.63836      .   S
    C241   O324      0.63836  1_556   S
    C212   O325      0.41454      .   S
    C287   O325      0.41454      .   S
    C212   O326      0.66958      .   S
    C102   O326      0.66958      .   S
    C212   O327      0.65125      .   S
    C126   O327      0.65125  1_556   S
    C212   O328      0.50291      .   S
    C138   O328      0.50291  1_556   S
    C88    O329      0.54067      .   S
    C137   O329      0.54067  1_556   S
    C55    O330      0.54901      .   S
    C117   O330      0.54901  1_556   S
    C214   O331      0.60912      .   S
    C259   O331      0.60912      .   S
    C214   O332      0.79080      .   S
    C297   O332      0.79080  1_556   S
    C214   O333      0.89272      .   S
    C2     O333      0.89272  1_556   S
    C196   O334      0.86196      .   S
    C147   O334      0.86196  1_556   S
    C196   O335      0.73850      .   S
    C123   O335      0.73850  1_656   S
    C196   O336      0.73829      .   S
    C135   O336      0.73829  1_656   S
    C238   O337      0.65598      .   S
    C75    O337      0.65598      .   S
    C238   O338      0.62032      .   S
    C11    O338      0.62032  1_656   S
    C236   O339      1.03376      .   S
    C0     O339      1.03376  1_556   S
    C225   O340      0.68140      .   S
    C245   O340      0.68140      .   S
    C265   O341      0.48464      .   S
    C21    O341      0.48464      .   S
    C59    O342      0.53485      .   S
    C200   O342      0.53485      .   S
    C272   O343      0.38104      .   S
    C251   O343      0.38104      .   S
    C271   O344      0.51549      .   S
    C251   O344      0.51549      .   S
    C229   O345      0.46649      .   S
    C20    O345      0.46649      .   S
    C229   O346      0.52101      .   S
    C87    O346      0.52101      .   S
    C51    O347      0.54937      .   S
    C150   O347      0.54937      .   S
    C280   O348      0.36317  1_655   S
    C189   O348      0.36317      .   S
    C48    O349      0.53501      .   S
    C299   O349      0.53501      .   S
    C256   O350      0.47926      .   S
    C67    O350      0.47926      .   S
    C256   O351      0.64000      .   S
    C128   O351      0.64000      .   S
    C245   O352      0.64018      .   S
    C127   O352      0.64018  1_455   S
    C224   O353      0.24645      .   S
    C53    O353      0.24645      .   S
    C259   O354      0.64146      .   S
    C124   O354      0.64146      .   S
    C50    O355      0.54875      .   S
    C150   O355      0.54875      .   S
    C27    O356      0.54824      .   S
    C174   O356      0.54824      .   S
    C3     O357      0.64636      .   S
    C270   O357      0.64636      .   S
    C200   O358      0.54504      .   S
    C296   O358      0.54504      .   S
    C109   O359      0.22711      .   S
    C150   O359      0.22711      .   S
    C150   O360      0.54841      .   S
    C49    O360      0.54841      .   S
    C174   O361      0.42549      .   S
    C79    O361      0.42549      .   S
    C118   O362      0.65759      .   S
    C299   O362      0.65759      .   S
    C118   O363      0.54846      .   S
    C52    O363      0.54846      .   S
    C118   O364      0.59097      .   S
    C83    O364      0.59097      .   S
    C286   O365      1.39038      .   S
    C10    O365      1.39038      .   S
    C68    O366      0.75269      .   S
    C8     O366      0.75269      .   S
    C30    O367      0.54381      .   S
    C148   O367      0.54381      .   S
    C128   O368      0.64189  1_565   S
    C246   O368      0.64189      .   S
    C131   O369      0.64088      .   S
    C249   O369      0.64088      .   S
    C127   O370      0.88382  1_465   S
    C178   O370      0.88382      .   S
    C127   O371      0.64114  1_565   S
    C255   O371      0.64114      .   S
    C127   O372      0.74683      .   S
    C139   O372      0.74683  1_655   S
    C178   O373      0.66194  1_655   S
    C255   O373      0.66194      .   S
    C178   O374      0.42278  1_655   S
    C101   O374      0.42278      .   S
    C124   O375      0.64032  1_655   S
    C242   O375      0.64032      .   S
    C124   O376      0.65097      .   S
    C77    O376      0.65097      .   S
    C124   O377      0.74828  1_655   S
    C136   O377      0.74828      .   S
    C42    O378      0.54859      .   S
    C116   O378      0.54859      .   S
    C187   O379      0.66410      .   S
    C8     O379      0.66410      .   S
    C187   O380      0.73411      .   S
    C98    O380      0.73411      .   S
    C246   O381      0.30555      .   S
    C226   O381      0.30555      .   S
    C270   O382      0.31494      .   S
    C223   O382      0.31494      .   S
    C295   O383      0.30574      .   S
    C8     O383      0.30574      .   S
    C226   O384      0.40996      .   S
    C220   O384      0.40996      .   S
    C195   O385      1.32302      .   S
    C10    O385      1.32302      .   S
    C96    O386      0.29243      .   S
    C162   O386      0.29243      .   S
    C148   O387      0.70225      .   S
    C136   O387      0.70225  1_455   S
    C148   O388      0.69913      .   S
    C157   O388      0.69913      .   S
    C153   O389      0.70794      .   S
    C140   O389      0.70794      .   S
    C153   O390      0.69919      .   S
    C165   O390      0.69919      .   S
    C156   O391      0.69875      .   S
    C154   O391      0.69875      .   S
    C162   O392      0.69866      .   S
    C145   O392      0.69866      .   S
    C269   O393      0.22870      .   S
    C181   O393      0.22870      .   S
    C10    O394      0.52641      .   S
    C232   O394      0.52641      .   S
    C140   O395      0.70237  1_565   S
    C163   O395      0.70237      .   S
    C143   O396      0.66760      .   S
    C108   O396      0.66760      .   S
    C143   O397      0.45974      .   S
    C292   O397      0.45974      .   S
    C139   O398      0.70175  1_665   S
    C152   O398      0.70175      .   S
    C136   O399      0.70816      .   S
    C166   O399      0.70816      .   S
    C44    O400      0.36007      .   S
    C278   O400      0.36007      .   S
    C116   O401      0.72655      .   S
    C190   O401      0.72655      .   S
    C116   O402      0.61244      .   S
    C278   O402      0.61244      .   S
    C116   O403      0.54889      .   S
    C43    O403      0.54889      .   S
    C213   O404      0.93782      .   S
    C193   O404      0.93782      .   S
    C190   O405      0.54156      .   S
    C157   O405      0.54156      .   S
    C268   O406      0.42707      .   S
    C12    O406      0.42707      .   S
    C268   O407      0.59694      .   S
    C145   O407      0.59694      .   S
    C191   O408      0.67776      .   S
    C198   O408      0.67776  1_655   S
    C157   O409      0.70844      .   S
    C144   O409      0.70844      .   S
    C16    O410      0.54393      .   S
    C165   O410      0.54393      .   S
    C62    O411      0.49535      .   S
    C277   O411      0.49535      .   S
    C165   O412      0.70231      .   S
    C134   O412      0.70231      .   S
    C154   O413      0.46947      .   S
    C277   O413      0.46947      .   S
    C145   O414      0.40756      .   S
    C105   O414      0.40756      .   S
    C145   O415      0.70154      .   S
    C133   O415      0.70154  1_545   S
    C292   O416      0.34633      .   S
    C158   O416      0.34633      .   S
    C198   O417      0.24172      .   S
    C274   O417      0.24172  1_455   S
    C198   O418      0.75486  1_655   S
    C192   O418      0.75486      .   S
    C37    O419      0.54866      .   S
    C171   O419      0.54866      .   S
    C163   O420      0.54405      .   S
    C15    O420      0.54405      .   S
    C163   O421      0.69936      .   S
    C146   O421      0.69936      .   S
    C274   O422      0.62478      .   S
    C202   O422      0.62478      .   S
    C158   O423      0.54391      .   S
    C13    O423      0.54391      .   S
    C158   O424      0.69890      .   S
    C168   O424      0.69890      .   S
    C152   O425      0.69877      .   S
    C164   O425      0.69877      .   S
    C188   O426      0.83322      .   S
    C133   O426      0.83322      .   S
    C166   O427      0.69927      .   S
    C159   O427      0.69927      .   S
    C61    O428      0.30213      .   S
    C235   O428      0.30213      .   S
    C294   O429      0.78393      .   S
    C222   O429      0.78393      .   S
    C294   O430      0.75464      .   S
    C199   O430      0.75464      .   S
    C171   O431      0.54937      .   S
    C38    O431      0.54937      .   S
    C171   O432      0.66265      .   S
    C218   O432      0.66265      .   S
    C171   O433      0.54860      .   S
    C36    O433      0.54860      .   S
    C144   O434      0.70227  1_655   S
    C159   O434      0.70227      .   S
    C144   O435      0.74777      .   S
    C132   O435      0.74777      .   S
    C134   O436      0.47495  1_565   S
    C179   O436      0.47495      .   S
    C133   O437      0.70815  1_655   S
    C164   O437      0.70815      .   S
    C133   O438      0.74634      .   S
    C121   O438      0.74634      .   S
    C179   O439      0.26424      .   S
    C146   O439      0.26424      .   S
    C218   O440      0.85905      .   S
    C215   O440      0.85905      .   S
    C289   O441      0.43180      .   S
    C106   O441      0.43180      .   S
    C146   O442      0.75399      .   S
    C175   O442      0.75399      .   S
    C159   O443      0.56689      .   S
    C288   O443      0.56689      .   S
    C159   O444      0.54386      .   S
    C14    O444      0.54386      .   S
    C202   O445      0.49490      .   S
    C184   O445      0.49490      .   S
    C164   O446      0.72784      .   S
    C115   O446      0.72784      .   S
    C164   O447      0.75426      .   S
    C172   O447      0.75426      .   S
    C80    O448      0.41711      .   S
    C129   O448      0.41711      .   S
    C183   O449      0.51512      .   S
    C233   O449      0.51512      .   S
    C194   O450      0.76476      .   S
    C252   O450      0.76476      .   S
    C184   O451      0.67783      .   S
    C288   O451      0.67783      .   S
    C184   O452      0.63995      .   S
    C201   O452      0.63995      .   S
    C252   O453      0.64033      .   S
    C132   O453      0.64033      .   S
    C257   O454      0.64092      .   S
    C121   O454      0.64092  1_545   S
    C257   O455      0.64542      .   S
    C9     O455      0.64542      .   S
    C261   O456      0.64077      .   S
    C129   O456      0.64077      .   S
    C205   O457      0.43889      .   S
    C199   O457      0.43889      .   S
    C205   O458      0.47004      .   S
    C114   O458      0.47004      .   S
    C205   O459      0.94985      .   S
    C204   O459      0.94985      .   S
    C240   O460      0.32468      .   S
    C221   O460      0.32468      .   S
    C132   O461      0.64135  1_655   S
    C250   O461      0.64135      .   S
    C216   O462      0.77443      .   S
    C298   O462      0.77443      .   S
    C121   O463      0.47520  1_655   S
    C104   O463      0.47520      .   S
    C121   O464      0.64015  1_655   S
    C239   O464      0.64015      .   S
    C129   O465      0.64023      .   S
    C247   O465      0.64023      .   S
    C122   O466      0.39265      .   S
    C221   O466      0.39265      .   S
    C122   O467      0.63957  1_565   S
    C258   O467      0.63957      .   S
    C23    O468      0.54835      .   S
    C175   O468      0.54835      .   S
    C9     O469      0.87105      .   S
    C1     O469      0.87105      .   S
    C45    O470      0.54837      .   S
    C119   O470      0.54837      .   S
    C275   O471      0.61277      .   S
    C172   O471      0.61277      .   S
    C275   O472      0.31070      .   S
    C35    O472      0.31070      .   S
    C33    O473      0.54845      .   S
    C172   O473      0.54845      .   S
    C175   O474      0.70089      .   S
    C6     O474      0.70089      .   S
    C175   O475      0.54959      .   S
    C24    O475      0.54959      .   S
    C119   O476      0.54858      .   S
    C46    O476      0.54858      .   S
    C119   O477      0.54923      .   S
    C47    O477      0.54923      .   S
    C119   O478      0.71902      .   S
    C69    O478      0.71902      .   S
    C172   O479      0.54943      .   S
    C34    O479      0.54943      .   S
    C298   O480      0.47108      .   S
    C204   O480      0.47108      .   S
    C6     O481      0.28042      .   S
    C227   O481      0.28042      .   S
    C110   O482      0.49264      .   S
    C283   O482      0.49264      .   S
    C180   O483      0.42654      .   S
    C247   O483      0.42654      .   S
    C293   O484      0.42323      .   S
    C94    O484      0.42323      .   S
    C22    O485      0.48464      .   S
    C266   O485      0.48464      .   S
    C18    O486      0.48465      .   S
    C263   O486      0.48465      .   S
    C258   O487      0.68654      .   S
    C64    O487      0.68654      .   S
    C97    O488      0.57833      .   S
    C173   O488      0.57833      .   S
    C32    O489      0.54877      .   S
    C173   O489      0.54877      .   S
    C279   O490      0.69831      .   S
    C281   O490      0.69831      .   S
    C279   O491      0.67739      .   S
    C66    O491      0.67739      .   S
    C78    O492      1.07023  1_565   S
    C2     O492      1.07023      .   S
    C266   O493      0.42651      .   S
    C210   O493      0.42651      .   S
    C29    O494      0.54854      .   S
    C173   O494      0.54854      .   S
    C281   O495      0.54465      .   S
    C41    O495      0.54465      .   S
    C237   O496      0.58823      .   S
    C211   O496      0.58823      .   S
    C237   O497      0.66503      .   S
    C7     O497      0.66503  1_655   S
    C267   O498      1.03472  1_565   S
    C2     O498      1.03472      .   S
    C208   O499      0.79562      .   S
    C285   O499      0.79562      .   S
    C173   O500      0.54945      .   S
    C31    O500      0.54945      .   S
    C113   O501      0.39064      .   S
    C7     O501      0.39064      .   S
    C290   O502      0.59317      .   S
    C135   O502      0.59317      .   S
    C290   O503      0.69420      .   S
    C169   O503      0.69420      .   S
    C56    O504      0.54917      .   S
    C117   O504      0.54917      .   S
    C17    O505      0.54376      .   S
    C167   O505      0.54376      .   S
    C211   O506      0.55335      .   S
    C4     O506      0.55335      .   S
    C210   O507      0.60125      .   S
    C11    O507      0.60125      .   S
    C203   O508      0.61265      .   S
    C262   O508      0.61265      .   S
    C160   O509      0.69846      .   S
    C167   O509      0.69846      .   S
    C160   O510      0.51848      .   S
    C219   O510      0.51848      .   S
    C297   O511      0.61794      .   S
    C241   O511      0.61794      .   S
    C167   O512      0.58772      .   S
    C219   O512      0.58772      .   S
    C167   O513      0.70216      .   S
    C137   O513      0.70216  1_545   S
    C7     O514      0.65752      .   S
    C11    O514      0.65752      .   S
    C219   O515      0.64813      .   S
    C142   O515      0.64813      .   S
    C11    O516      0.70978      .   S
    C5     O516      0.70978      .   S
    C137   O517      0.74628      .   S
    C125   O517      0.74628      .   S
    C125   O518      0.64214  1_545   S
    C243   O518      0.64214      .   S
    C125   O519      0.63876      .   S
    C260   O519      0.63876      .   S
    C130   O520      0.63900      .   S
    C248   O520      0.63900      .   S
    C130   O521      0.64199  1_565   S
    C253   O521      0.64199      .   S
    C244   O522      0.63926      .   S
    C126   O522      0.63926      .   S
    C254   O523      0.64167      .   S
    C126   O523      0.64167  1_455   S
    C117   O524      0.54840      .   S
    C54    O524      0.54840      .   S
    C117   O525      0.75358      .   S
    C161   O525      0.75358      .   S
    C19    O526      0.54315      .   S
    C147   O526      0.54315      .   S
    C161   O527      0.70836      .   S
    C138   O527      0.70836      .   S
    C161   O528      0.69827      .   S
    C147   O528      0.69827      .   S
    C138   O529      0.70243  1_455   S
    C151   O529      0.70243      .   S
    C147   O530      0.70234      .   S
    C135   O530      0.70234  1_655   S
    C262   O531      0.64164      .   S
    C123   O531      0.64164  1_655   S
    C151   O532      0.54313      .   S
    C60    O532      0.54313      .   S
    C151   O533      0.69846      .   S
    C169   O533      0.69846      .   S
    C135   O534      0.70836      .   S
    C169   O534      0.70836      .   S
    C236   O535      1.03518  1_455   S
    C2     O535      1.03518  1_556   S
    C236   O536      1.03656      .   S
    C3     O536      1.03656      .   S
    C236   O537      1.15985      .   S
    C7     O537      1.15985  1_666   S
    C237   O538      1.03403  1_565   S
    C0     O538      1.03403      .   S
    C237   O539      1.03659  1_455   S
    C1     O539      1.03659      .   S
    C237   O540      1.03303      .   S
    C4     O540      1.03303      .   S
    C237   O541      0.89547      .   S
    C9     O541      0.89547  1_655   S
    C237   O542      1.24332      .   S
    C11    O542      1.24332  1_655   S
    C237   O543      0.54284      .   S
    C113   O543      0.54284  1_655   S
    C238   O544      1.03424  1_565   S
    C3     O544      1.03424      .   S
    C238   O545      1.03714      .   S
    C4     O545      1.03714  1_556   S
    C238   O546      1.03333  1_455   S
    C5     O546      1.03333  1_556   S
    C238   O547      0.93286      .   S
    C7     O547      0.93286  1_656   S
    C239   O548      1.10503      .   S
    C0     O548      1.10503      .   S
    C239   O549      1.22089  1_545   S
    C9     O549      1.22089  1_655   S
    C239   O550      0.63921      .   S
    C104   O550      0.63921      .   S
    C240   O551      1.11086      .   S
    C1     O551      1.11086      .   S
    C240   O552      0.64230      .   S
    C122   O552      0.64230      .   S
    C241   O553      1.11259      .   S
    C2     O553      1.11259      .   S
    C241   O554      0.63942      .   S
    C123   O554      0.63942      .   S
    C241   O555      0.76102  1_556   S
    C282   O555      0.76102  1_455   S
    C242   O556      1.11917      .   S
    C3     O556      1.11917      .   S
    C242   O557      0.82785      .   S
    C191   O557      0.82785      .   S
    C243   O558      1.11134      .   S
    C4     O558      1.11134      .   S
    C244   O559      1.11508      .   S
    C4     O559      1.11508      .   S
    C244   O560      0.74676  1_556   S
    C287   O560      0.74676      .   S
    C245   O561      1.10997      .   S
    C5     O561      1.10997  1_556   S
    C246   O562      1.11705      .   S
    C3     O562      1.11705      .   S
    C246   O563      0.41380      .   S
    C220   O563      0.41380      .   S
    C246   O564      0.74340      .   S
    C270   O564      0.74340      .   S
    C247   O565      1.10982      .   S
    C5     O565      1.10982      .   S
    C247   O566      0.66414      .   S
    C176   O566      0.66414      .   S
    C248   O567      1.12136      .   S
    C5     O567      1.12136      .   S
    C249   O568      1.12437      .   S
    C3     O568      1.12437      .   S
    C249   O569      0.84513      .   S
    C270   O569      0.84513      .   S
    C250   O570      1.12214      .   S
    C4     O570      1.12214      .   S
    C251   O571      1.11224      .   S
    C0     O571      1.11224  1_556   S
    C251   O572      0.68313      .   S
    C89    O572      0.68313      .   S
    C251   O573      0.64029      .   S
    C131   O573      0.64029      .   S
    C252   O574      1.11284      .   S
    C1     O574      1.11284      .   S
    C252   O575      0.94692      .   S
    C9     O575      0.94692      .   S
    C253   O576      1.10750      .   S
    C2     O576      1.10750      .   S
    C253   O577      1.40933      .   S
    C6     O577      1.40933      .   S
    C254   O578      1.11439      .   S
    C5     O578      1.11439      .   S
    C254   O579      1.32188      .   S
    C11    O579      1.32188      .   S
    C255   O580      1.11944      .   S
    C3     O580      1.11944      .   S
    C256   O581      1.11736      .   S
    C4     O581      1.11736  1_556   S
    C256   O582      0.89357      .   S
    C231   O582      0.89357      .   S
    C257   O583      1.12639      .   S
    C1     O583      1.12639      .   S
    C258   O584      1.12309      .   S
    C2     O584      1.12309      .   S
    C258   O585      1.27846      .   S
    C6     O585      1.27846      .   S
    C258   O586      0.83183      .   S
    C221   O586      0.83183  1_565   S
    C258   O587      0.88351      .   S
    C297   O587      0.88351      .   S
    C259   O588      1.11863      .   S
    C2     O588      1.11863  1_556   S
    C259   O589      0.74362      .   S
    C284   O589      0.74362      .   S
    C260   O590      1.11803      .   S
    C0     O590      1.11803      .   S
    C261   O591      1.12781      .   S
    C1     O591      1.12781      .   S
    C261   O592      0.61157      .   S
    C80    O592      0.61157      .   S
    C261   O593      0.89089      .   S
    C217   O593      0.89089      .   S
    C262   O594      1.11506      .   S
    C0     O594      1.11506      .   S
    C262   O595      0.82368  1_556   S
    C196   O595      0.82368      .   S
    C262   O596      0.71110  1_556   S
    C282   O596      0.71110      .   S
    C263   O597      1.13410  1_655   S
    C0     O597      1.13410      .   S
    C263   O598      1.13173  1_545   S
    C1     O598      1.13173      .   S
    C263   O599      1.13316      .   S
    C2     O599      1.13316      .   S
    C263   O600      1.27064      .   S
    C7     O600      1.27064  1_565   S
    C263   O601      1.35107  1_545   S
    C9     O601      1.35107      .   S
    C264   O602      1.13332      .   S
    C2     O602      1.13332  1_556   S
    C264   O603      1.13481  1_655   S
    C3     O603      1.13481      .   S
    C264   O604      1.13197  1_545   S
    C5     O604      1.13197  1_556   S
    C264   O605      1.29781  1_545   S
    C11    O605      1.29781  1_556   S
    C264   O606      0.48483      .   S
    C20    O606      0.48483      .   S
    C264   O607      0.85381      .   S
    C229   O607      0.85381      .   S
    C265   O608      1.13339      .   S
    C0     O608      1.13339  1_556   S
    C265   O609      1.13453      .   S
    C3     O609      1.13453      .   S
    C265   O610      1.13515  1_545   S
    C4     O610      1.13515  1_556   S
    C265   O611      1.22694      .   S
    C7     O611      1.22694  1_666   S
    C266   O612      1.13459      .   S
    C1     O612      1.13459      .   S
    C266   O613      1.13230  1_655   S
    C4     O613      1.13230      .   S
    C266   O614      1.13564      .   S
    C5     O614      1.13564      .   S
    C266   O615      0.99102      .   S
    C7     O615      0.99102      .   S
    C266   O616      0.74022      .   S
    C11    O616      0.74022      .   S
    C266   O617      0.65465      .   S
    C103   O617      0.65465      .   S
    C267   O618      1.03593      .   S
    C1     O618      1.03593      .   S
    C267   O619      1.03422      .   S
    C5     O619      1.03422      .   S
    C267   O620      0.97811      .   S
    C7     O620      0.97811      .   S
    C267   O621      0.97973      .   S
    C11    O621      0.97973      .   S
    C267   O622      0.69674      .   S
    C103   O622      0.69674      .   S
    C268   O623      1.02695      .   S
    C10    O623      1.02695      .   S
    C268   O624      0.63325      .   S
    C105   O624      0.63325      .   S
    C268   O625      0.77434      .   S
    C232   O625      0.77434      .   S
    C270   O626      0.65961      .   S
    C220   O626      0.65961      .   S
    C270   O627      0.86371      .   S
    C226   O627      0.86371      .   S
    C271   O628      1.34290      .   S
    C0     O628      1.34290  1_556   S
    C271   O629      0.58282      .   S
    C272   O629      0.58282      .   S
    C272   O630      1.08841      .   S
    C0     O630      1.08841  1_556   S
    C272   O631      0.91186      .   S
    C131   O631      0.91186      .   S
    C282   O632      1.12280  1_455   S
    C2     O632      1.12280  1_556   S
    C282   O633      0.75234      .   S
    C123   O633      0.75234  1_656   S
    C295   O634      0.32264      .   S
    C70    O634      0.32264      .   S
    C295   O635      0.85077      .   S
    C187   O635      0.85077      .   S
    C297   O636      0.90157      .   S
    C2     O636      0.90157      .   S
