# CIF file generated by openbabel 2.4.90, see http://openbabel.sf.net
data_I
_chemical_name_common ''
_cell_length_a 14.76
_cell_length_b 14.768
_cell_length_c 14.7681
_cell_angle_alpha 119.862
_cell_angle_beta 119.897
_cell_angle_gamma 90.143
_space_group_name_H-M_alt 'P 1'
_space_group_name_Hall 'P 1'
loop_
    _symmetry_equiv_pos_as_xyz
    x,y,z
loop_
    _atom_site_label
    _atom_site_type_symbol
    _atom_site_fract_x
    _atom_site_fract_y
    _atom_site_fract_z
    _atom_site_occupancy
    Zr0     Zr   0.10953   0.12167   0.98732   1.000
    Zr1     Zr   0.87102   0.88213   0.74782   1.000
    Zr2     Zr   0.87258   0.11833   0.99071   1.000
    Zr3     Zr   0.11437   0.11753   0.22665   1.000
    Zr4     Zr   0.11279   0.88109   0.98312   1.000
    Zr5     Zr   0.87625   0.87842   0.98790   1.000
    Zr6     Zr   0.53260   0.02049   0.75924   1.000
    Zr7     Zr   0.99758   0.96010   0.94932   1.000
    Zr8     Zr   0.78104   0.10166   0.34449   1.000
    Zr9     Zr   0.97039   0.89608   0.72029   1.000
    Zr10    Zr   0.70288   0.81056   0.38102   1.000
    Zr11    Zr   0.96078   0.90042   0.97431   1.000
    Zr12    Zr   0.89454   0.09613   0.80162   1.000
    Zr13    Zr   0.27503   0.09536   0.17283   1.000
    Zr14    Zr   0.53332   0.04975   0.77040   1.000
    Zr15    Zr   0.37569   0.55238   0.25412   1.000
    Zr16    Zr   0.35366   0.40738   0.16695   1.000
    Zr17    Zr   0.76180   0.34315   0.92076   1.000
    Zr18    Zr   0.47489   0.39974   0.98370   1.000
    Zr19    Zr   0.63981   0.44693   0.91460   1.000
    Zr20    Zr   0.80582   0.11424   0.26326   1.000
    Zr21    Zr   0.51021   0.61414   0.04127   1.000
    Zr22    Zr   0.36649   0.63882   0.30006   1.000
    Zr23    Zr   0.36064   0.51435   0.73487   1.000
    Zr24    Zr   0.34309   0.53570   0.95844   1.000
    Zr25    Zr   0.02070   0.86428   0.08660   1.000
    Zr26    Zr   0.19426   0.13396   0.64376   1.000
    Zr27    Zr   0.71961   0.98271   0.84851   1.000
    Zr28    Zr   0.52034   0.22184   0.70812   1.000
    Zr29    Zr   0.22576   0.21181   0.92888   1.000
    Zr30    Zr   0.24476   0.38566   0.63649   1.000
    Zr31    Zr   0.90933   0.75059   0.52635   1.000
    Zr32    Zr   0.27597   0.84649   0.24692   1.000
    Zr33    Zr   0.67349   0.52319   0.39247   1.000
    Zr34    Zr   0.56425   0.54648   0.18329   1.000
    Zr35    Zr   0.39714   0.55328   0.80077   1.000
    Zr36    Zr   0.65663   0.40164   0.73561   1.000
    Zr37    Zr   0.34097   0.26688   0.68070   1.000
    Zr38    Zr   0.81029   0.17491   0.62111   1.000
    Zr39    Zr   0.53866   0.40160   0.62274   1.000
    Zr40    Zr   0.30739   0.39058   0.76176   1.000
    Zr41    Zr   0.60273   0.26813   0.90436   1.000
    Zr42    Zr   0.04568   0.38999   0.78795   1.000
    Zr43    Zr   0.58500   0.59683   0.58709   1.000
    Zr44    Zr   0.67271   0.49806   0.65408   1.000
    Zr45    Zr   0.39876   0.84787   0.38785   1.000
    Zr46    Zr   0.59198   0.34936   0.20495   1.000
    Zr47    Zr   0.41708   0.11588   0.20135   1.000
    Zr48    Zr   0.57768   0.66286   0.35998   1.000
    Zr49    Zr   0.30013   0.32898   0.95222   1.000
    Zr50    Zr   0.51821   0.01889   0.78727   1.000
    Zr51    Zr   0.30421   0.64449   0.98977   1.000
    Zr52    Zr   0.38875   0.48644   0.16751   1.000
    Zr53    Zr   0.63242   0.75594   0.07562   1.000
    Zr54    Zr   0.04480   0.94908   0.08540   1.000
    Zr55    Zr   0.92247   0.06868   0.85451   1.000
    Zr56    Zr   0.19469   0.06794   0.11983   1.000
    Zr57    Zr   0.92092   0.37636   0.74276   1.000
    Zr58    Zr   0.66720   0.37517   0.83779   1.000
    Zr59    Zr   0.67448   0.29834   0.86785   1.000
    Zr60    Zr   0.38025   0.42721   0.84448   1.000
    Zr61    Zr   0.77836   0.65045   0.26247   1.000
    Zr62    Zr   0.75428   0.19800   0.60069   1.000
    Zr63    Zr   0.89527   0.54553   0.72633   1.000
    Zr64    Zr   0.38992   0.49234   0.79278   1.000
    O65     O    0.03275   0.90668   0.08600   1.000
    O66     O    0.00279   0.92475   0.02985   1.000
    O67     O    0.23486   0.08165   0.14633   1.000
    O68     O    0.74062   0.73051   0.32175   1.000
    O69     O    0.79343   0.10795   0.30388   1.000
    O70     O    0.64028   0.73671   0.37050   1.000
    O71     O    0.78229   0.18646   0.61090   1.000
    O72     O    0.92070   0.88910   0.73406   1.000
    O73     O    0.52541   0.01969   0.77326   1.000
    O74     O    0.34382   0.40890   0.80312   1.000
    O75     O    0.39353   0.52281   0.79678   1.000
    O76     O    0.90850   0.08241   0.82806   1.000
    O77     O    0.67084   0.33675   0.85282   1.000
    O78     O    0.65351   0.41105   0.87620   1.000
    O79     O    0.79609   0.05052   0.91961   1.000
    O80     O    0.71814   0.32074   0.89431   1.000
    O81     O    0.97918   0.93026   0.96181   1.000
    O82     O    0.91852   0.88942   0.98110   1.000
    O83     O    0.07958   0.03330   0.15602   1.000
    O84     O    0.07880   0.91508   0.03426   1.000
    O85     O    0.96052   0.91375   0.03665   1.000
    O86     O    0.02119   0.95459   0.01736   1.000
    O87     O    0.01600   0.09518   0.92092   1.000
    O88     O    0.89674   0.97540   0.80116   1.000
    O89     O    0.89753   0.09351   0.92261   1.000
    O90     O    0.96003   0.01439   0.90191   1.000
    O91     O    0.94643   0.98238   0.78740   1.000
    O92     O    0.15211   0.09481   0.05357   1.000
    O93     O    0.15453   0.09273   0.17324   1.000
    O94     O    0.15374   0.97451   0.05147   1.000
    O95     O    0.09614   0.01402   0.03457   1.000
    N96     N    0.99706   0.03011   0.51538   1.000
    O97     O    0.86557   0.93929   0.46181   1.000
    O98     O    0.04319   0.06573   0.70524   1.000
    O99     O    0.00840   0.00933   0.63849   1.000
    O100    O    0.94827   0.96325   0.29799   1.000
    O101    O    0.04621   0.06155   0.39642   1.000
    O102    O    0.97002   0.97078   0.59937   1.000
    O103    O    0.94518   0.96730   0.60625   1.000
    O104    O    0.88786   0.92997   0.45624   1.000
    N105    N    0.43928   0.44419   0.48738   1.000
    N106    N    0.01365   0.56171   0.21232   1.000
    O107    O    0.93747   0.37129   0.12239   1.000
    O108    O    0.06764   0.70202   0.11137   1.000
    O109    O    0.04471   0.34855   0.12512   1.000
    O110    O    0.98547   0.34772   0.12597   1.000
    O111    O    0.04592   0.34752   0.18495   1.000
    O112    O    0.01672   0.80816   0.11562   1.000
    O113    O    0.90515   0.73163   0.45522   1.000
    O114    O    0.95356   0.37701   0.10275   1.000
    O115    O    0.05393   0.37621   0.24564   1.000
    O116    O    0.05364   0.68541   0.09858   1.000
    O117    O    0.10000   0.32832   0.24435   1.000
    O118    O    0.09914   0.37722   0.24470   1.000
    O119    O    0.05289   0.68614   0.05030   1.000
    O120    O    0.09741   0.37828   0.14611   1.000
    O121    O    0.95373   0.68704   0.45396   1.000
    O122    O    0.97857   0.69052   0.44708   1.000
    O123    O    0.95652   0.68438   0.10070   1.000
    O124    O    0.97765   0.68988   0.09731   1.000
    O125    O    0.09888   0.73085   0.14423   1.000
    O126    O    0.90558   0.32875   0.05474   1.000
    O127    O    0.82058   0.80429   0.99687   1.000
    O128    O    0.95486   0.37676   0.14872   1.000
    O129    O    0.05123   0.37864   0.10184   1.000
    O130    O    0.08875   0.35105   0.24543   1.000
    O131    O    0.11037   0.38284   0.14095   1.000
    O132    O    0.08921   0.38438   0.13713   1.000
    O133    O    0.03728   0.36728   0.10962   1.000
    O134    O    0.97804   0.36645   0.11047   1.000
    O135    O    0.92996   0.36190   0.08860   1.000
    N136    N    0.49506   0.02862   0.56086   1.000
    O137    O    0.50909   0.04432   0.65318   1.000
    N138    N    0.51958   0.76416   0.87037   1.000
    N139    N    0.44982   0.04207   0.99595   1.000
    O140    O    0.31653   0.97202   0.98807   1.000
    O141    O    0.31500   0.07075   0.98933   1.000
    N142    N    0.87505   0.06218   0.17278   1.000
    O143    O    0.88757   0.07675   0.11504   1.000
    O144    O    0.94802   0.07655   0.17402   1.000
    O145    O    0.88849   0.01677   0.11434   1.000
    O146    O    0.90962   0.02227   0.11094   1.000
    N147    N    0.89292   0.82276   0.85542   1.000
    O148    O    0.92231   0.83700   0.90051   1.000
    O149    O    0.89581   0.83151   0.82736   1.000
    O150    O    0.95625   0.83125   0.88619   1.000
    O151    O    0.89711   0.83058   0.88738   1.000
    O152    O    0.92745   0.85100   0.87773   1.000
    O153    O    0.91825   0.83608   0.88398   1.000
    O154    O    0.87551   0.92833   0.89771   1.000
    O155    O    0.87512   0.86928   0.83698   1.000
    O156    O    0.87642   0.86835   0.89700   1.000
    O157    O    0.90676   0.88877   0.88736   1.000
    O158    O    0.89756   0.87385   0.89360   1.000
    N159    N    0.32116   0.49145   0.24127   1.000
    N160    N    0.26481   0.50497   0.60316   1.000
    N161    N    0.65316   0.53765   0.77848   1.000
    N162    N    0.87719   0.79349   0.24041   1.000
    N163    N    0.45175   0.87746   0.21900   1.000
    N164    N    0.94596   0.75181   0.18968   1.000
    N165    N    0.45163   0.27511   0.21866   1.000
    N166    N    0.09041   0.18312   0.53844   1.000
    N167    N    0.51260   0.58596   0.45486   1.000
    N168    N    0.75951   0.13489   0.33583   1.000
    O169    O    0.75029   0.12911   0.33255   1.000
    O170    O    0.76737   0.10731   0.33838   1.000
    N171    N    0.68443   0.71457   0.69201   1.000
    O172    O    0.74349   0.76116   0.79373   1.000
    O173    O    0.74105   0.76199   0.69459   1.000
    N174    N    0.40920   0.68944   0.94822   1.000
    N175    N    0.03658   0.94126   0.89885   1.000
    O176    O    0.01120   0.95346   0.91092   1.000
    O177    O    0.07024   0.91597   0.92360   1.000
    O178    O    0.02786   0.94872   0.90831   1.000
    O179    O    0.05584   0.98911   0.91782   1.000
    O180    O    0.99622   0.92922   0.85794   1.000
    O181    O    0.05666   0.92896   0.91677   1.000
    O182    O    0.02106   0.93271   0.85106   1.000
    O183    O    0.01866   0.93380   0.91456   1.000
    N184    N    0.77187   0.27954   0.65741   1.000
    N185    N    0.71361   0.99328   0.98412   1.000
    O186    O    0.75787   0.94542   0.98511   1.000
    O187    O    0.75675   0.04418   0.98642   1.000
    O188    O    0.67176   0.01972   0.92855   1.000
    N189    N    0.11947   0.79384   0.37356   1.000
    N190    N    0.16193   0.90718   0.66643   1.000
    N191    N    0.16885   0.62365   0.40598   1.000
    N192    N    0.60378   0.57067   0.07070   1.000
loop_
    _geom_bond_atom_site_label_1
    _geom_bond_atom_site_label_2
    _geom_bond_distance
    _geom_bond_site_symmetry_2
    _ccdc_geom_bond_type
    Zr54   O65       0.65598      .   S
    Zr25   O65       0.65598      .   S
    Zr54   O66       0.62032      .   S
    Zr11   O66       0.62032  1_656   S
    Zr56   O67       0.48464      .   S
    Zr13   O67       0.48464      .   S
    Zr61   O68       1.39038      .   S
    Zr10   O68       1.39038      .   S
    Zr20   O69       0.75269      .   S
    Zr8    O69       0.75269      .   S
    Zr48   O70       1.32302      .   S
    Zr10   O70       1.32302      .   S
    Zr62   O71       0.43180      .   S
    Zr38   O71       0.43180      .   S
    Zr9    O72       0.87105      .   S
    Zr1    O72       0.87105      .   S
    Zr6    O73       0.28042      .   S
    Zr50   O73       0.28042      .   S
    Zr40   O74       0.49264      .   S
    Zr60   O74       0.49264      .   S
    Zr64   O75       0.42323      .   S
    Zr35   O75       0.42323      .   S
    Zr12   O76       0.48465      .   S
    Zr55   O76       0.48465      .   S
    Zr58   O77       0.69831      .   S
    Zr59   O77       0.69831      .   S
    Zr58   O78       0.67739      .   S
    Zr19   O78       0.67739      .   S
    Zr27   O79       1.07023  1_565   S
    Zr2    O79       1.07023      .   S
    Zr59   O80       0.54465      .   S
    Zr17   O80       0.54465      .   S
    Zr7    O81       0.65752      .   S
    Zr11   O81       0.65752      .   S
    Zr11   O82       0.70978      .   S
    Zr5    O82       0.70978      .   S
    Zr54   O83       1.03424  1_565   S
    Zr3    O83       1.03424      .   S
    Zr54   O84       1.03714      .   S
    Zr4    O84       1.03714  1_556   S
    Zr54   O85       1.03333  1_455   S
    Zr5    O85       1.03333  1_556   S
    Zr54   O86       0.93286      .   S
    Zr7    O86       0.93286  1_656   S
    Zr55   O87       1.13410  1_655   S
    Zr0    O87       1.13410      .   S
    Zr55   O88       1.13173  1_545   S
    Zr1    O88       1.13173      .   S
    Zr55   O89       1.13316      .   S
    Zr2    O89       1.13316      .   S
    Zr55   O90       1.27064      .   S
    Zr7    O90       1.27064  1_565   S
    Zr55   O91       1.35107  1_545   S
    Zr9    O91       1.35107      .   S
    Zr56   O92       1.13339      .   S
    Zr0    O92       1.13339  1_556   S
    Zr56   O93       1.13453      .   S
    Zr3    O93       1.13453      .   S
    Zr56   O94       1.13515  1_545   S
    Zr4    O94       1.13515  1_556   S
    Zr56   O95       1.22694      .   S
    Zr7    O95       1.22694  1_666   S
    N96    O97       1.89506  1_545   S
    Zr10   O97       2.38033      .   S
    N96    O98       2.28663  1_655   S
    Zr0    O98       3.39076      .   S
    N96    O99       1.91833  1_655   S
    Zr9    O99       2.69357  1_665   S
    N96    O100      2.51699  1_545   S
    Zr5    O100      3.61912  1_556   S
    N96    O101      2.43094  1_655   S
    Zr3    O101      3.54337      .   S
    N96    O102      2.00981  1_545   S
    Zr9    O102      2.52170      .   S
    N96    O103      2.34699  1_545   S
    Zr1    O103      3.47050      .   S
    N96    O104      1.68710  1_545   S
    Zr10   O104      2.60762      .   S
    N106   O107      2.39010  1_455   S
    Zr2    O107      3.08962  1_556   S
    N106   O108      3.37696      .   S
    Zr4    O108      4.15472  1_556   S
    N106   O109      2.88737      .   S
    Zr0    O109      3.38383  1_556   S
    N106   O110      2.69033  1_455   S
    Zr2    O110      2.85617  1_556   S
    N106   O111      3.05327      .   S
    Zr3    O111      3.79680      .   S
    N106   O112      4.53072      .   S
    Zr7    O112      3.99317  1_656   S
    N106   O113      4.30249  1_455   S
    Zr1    O113      4.05932      .   S
    N106   O114      2.23762  1_455   S
    Zr2    O114      3.23602  1_556   S
    N106   O115      3.02635      .   S
    Zr3    O115      3.82993      .   S
    N106   O116      3.24736      .   S
    Zr4    O116      4.28946  1_556   S
    N106   O117      3.84359      .   S
    Zr3    O117      3.00858      .   S
    N106   O118      3.15548      .   S
    Zr3    O118      3.72504      .   S
    N106   O119      3.89764      .   S
    Zr4    O119      3.70960  1_556   S
    N106   O120      2.89946      .   S
    Zr0    O120      3.38592  1_556   S
    N106   O121      3.67693  1_455   S
    Zr1    O121      4.63377      .   S
    N106   O122      3.33667  1_455   S
    Zr9    O122      3.71482      .   S
    N106   O123      2.88199  1_455   S
    Zr5    O123      3.89784  1_556   S
    N106   O124      3.00953  1_455   S
    Zr11   O124      4.26679  1_556   S
    N106   O125      3.54673      .   S
    Zr4    O125      4.04575  1_556   S
    N106   O126      2.84528  1_455   S
    Zr2    O126      2.71935  1_556   S
    N106   O127      5.78277  1_454   S
    Zr6    O127      6.07732  1_545   S
    N106   O128      2.39087  1_455   S
    Zr2    O128      3.12558  1_556   S
    N106   O129      2.60693      .   S
    Zr0    O129      3.61641  1_556   S
    N106   O130      3.48398      .   S
    Zr3    O130      3.35733      .   S
    N106   O131      2.97878      .   S
    Zr0    O131      3.35878  1_556   S
    N106   O132      2.77284      .   S
    Zr0    O132      3.48662  1_556   S
    N106   O133      2.61953      .   S
    Zr0    O133      3.60167  1_556   S
    N106   O134      2.39565  1_455   S
    Zr2    O134      3.12267  1_556   S
    N106   O135      2.43612  1_455   S
    Zr2    O135      3.05476  1_556   S
    N136   O137      1.16586      .   S
    Zr6    O137      1.64458      .   S
    N139   O140      2.14376  1_545   S
    Zr4    O140      3.24273      .   S
    N139   O141      2.00015      .   S
    Zr0    O141      3.11572      .   S
    N142   O143      1.07109      .   S
    Zr2    O143      2.12506  1_556   S
    N142   O144      1.08653      .   S
    Zr3    O144      2.14962  1_455   S
    N142   O145      0.91047      .   S
    Zr5    O145      1.88585  1_566   S
    N142   O146      1.17128      .   S
    Zr11   O146      2.40618  1_566   S
    N147   O148      0.49799      .   S
    Zr11   O148      0.86678      .   S
    N147   O149      0.51094      .   S
    Zr1    O149      1.58748      .   S
    N147   O150      0.78431      .   S
    Zr4    O150      1.89065  1_455   S
    N147   O151      0.39563      .   S
    Zr5    O151      1.48663      .   S
    N147   O152      0.48666      .   S
    Zr7    O152      1.41056      .   S
    N147   O153      0.34082      .   S
    Zr11   O153      0.98810      .   S
    N147   O154      1.44189      .   S
    Zr2    O154      2.44618  1_545   S
    N147   O155      0.85494      .   S
    Zr1    O155      1.39398      .   S
    N147   O156      0.79238      .   S
    Zr5    O156      1.27621      .   S
    N147   O157      0.81210      .   S
    Zr7    O157      1.24672      .   S
    N147   O158      0.65536      .   S
    Zr11   O158      0.93219      .   S
    N168   O169      0.13190      .   S
    Zr8    O169      0.62735      .   S
    N168   O170      0.43816      .   S
    Zr8    O170      0.21261      .   S
    N171   O172      1.07341      .   S
    Zr5    O172      2.12087      .   S
    N171   O173      1.06254      .   S
    Zr1    O173      2.12995      .   S
    N175   O176      0.48947      .   S
    Zr7    O176      0.65567  1_655   S
    N175   O177      0.68974      .   S
    Zr4    O177      1.15523      .   S
    N175   O178      0.22575      .   S
    Zr7    O178      0.87370  1_655   S
    N175   O179      0.61736      .   S
    Zr0    O179      1.64143  1_545   S
    N175   O180      0.53410  1_455   S
    Zr1    O180      1.55391      .   S
    N175   O181      0.40093      .   S
    Zr4    O181      1.42479      .   S
    N175   O182      0.56251      .   S
    Zr9    O182      1.44885  1_655   S
    N175   O183      0.47177      .   S
    Zr11   O183      1.71276  1_655   S
    N185   O186      0.96421      .   S
    Zr5    O186      2.00279      .   S
    N185   O187      0.96030  1_565   S
    Zr2    O187      1.98485      .   S
    N185   O188      1.01112  1_565   S
    Zr6    O188      2.31943      .   S
