# CIF file generated by openbabel 2.4.90, see http://openbabel.sf.net
data_I
_chemical_name_common ''
_cell_length_a 11.6884
_cell_length_b 5.5643
_cell_length_c 22.8159
_cell_angle_alpha 90
_cell_angle_beta 100.691
_cell_angle_gamma 90
_space_group_name_H-M_alt 'P 1'
_space_group_name_Hall 'P 1'
loop_
    _symmetry_equiv_pos_as_xyz
    x,y,z
loop_
    _atom_site_label
    _atom_site_type_symbol
    _atom_site_fract_x
    _atom_site_fract_y
    _atom_site_fract_z
    _atom_site_occupancy
    N0      N    0.75153   0.66698   0.93157   1.000
    N1      N    0.24847   0.33302   0.06843   1.000
    N2      N    0.25153   0.83302   0.43157   1.000
    N3      N    0.74847   0.16698   0.56843   1.000
    Zr4     Zr   0.86258   0.75633   0.27818   1.000
    O5      O    0.97761   0.78166   0.32804   1.000
    O6      O    0.97097   0.60831   0.22289   1.000
    O7      O    0.81946   0.71257   0.18062   1.000
    O8      O    0.81902   0.76152   0.17827   1.000
    O9      O    0.82127   0.90007   0.35461   1.000
    O10     O    0.82170   0.57402   0.35696   1.000
    O11     O    0.97461   0.93394   0.22179   1.000
    Zr12    Zr   0.36258   0.74367   0.77818   1.000
    O13     O    0.47461   0.56606   0.72179   1.000
    O14     O    0.32127   0.59993   0.85461   1.000
    O15     O    0.31946   0.78743   0.68062   1.000
    O16     O    0.32170   0.92598   0.85696   1.000
    O17     O    0.47097   0.89169   0.72289   1.000
    O18     O    0.47761   0.71834   0.82804   1.000
    O19     O    0.31902   0.73848   0.67827   1.000
    Zr20    Zr   0.13742   0.24367   0.72182   1.000
    O21     O    0.17873   0.09993   0.64539   1.000
    O22     O    0.18054   0.28743   0.81938   1.000
    O23     O    0.02239   0.21834   0.67196   1.000
    O24     O    0.18098   0.23848   0.82173   1.000
    O25     O    0.02539   0.06606   0.77821   1.000
    O26     O    0.02903   0.39169   0.77711   1.000
    O27     O    0.17830   0.42598   0.64304   1.000
    Zr28    Zr   0.63742   0.25633   0.22182   1.000
    O29     O    0.52903   0.10831   0.27711   1.000
    O30     O    0.52239   0.28166   0.17196   1.000
    O31     O    0.67873   0.40007   0.14539   1.000
    O32     O    0.67830   0.07402   0.14304   1.000
    O33     O    0.68098   0.26152   0.32173   1.000
    O34     O    0.52539   0.43394   0.27821   1.000
    O35     O    0.68054   0.21257   0.31938   1.000
loop_
    _geom_bond_atom_site_label_1
    _geom_bond_atom_site_label_2
    _geom_bond_distance
    _geom_bond_site_symmetry_2
    _ccdc_geom_bond_type
    Zr4    O5        1.59824      .   S
    N2     O5        3.62016  1_455   S
    Zr4    O6        2.11360      .   S
    N1     O6        5.43400  1_455   S
    Zr4    O7        2.20269      .   S
    N0     O7        5.59552  1_556   S
    Zr4    O8        2.24183      .   S
    N0     O8        5.56184  1_556   S
    Zr4    O9        2.05568      .   S
    N3     O9        5.31706  1_545   S
    Zr4    O10       2.19233      .   S
    N3     O10       5.53857      .   S
    Zr4    O11       2.22981      .   S
    N1     O11       5.61917  1_445   S
    Zr12   O13       2.22981      .   S
    N3     O13       5.61917      .   S
    Zr12   O14       2.05568      .   S
    N1     O14       5.31706  1_554   S
    Zr12   O15       2.20269      .   S
    N2     O15       5.59552      .   S
    Zr12   O16       2.19233      .   S
    N1     O16       5.53857  1_544   S
    Zr12   O17       2.11360      .   S
    N3     O17       5.43400  1_545   S
    Zr12   O18       1.59824      .   S
    N0     O18       3.62016      .   S
    Zr12   O19       2.24183      .   S
    N2     O19       5.56184      .   S
    Zr20   O21       2.05568      .   S
    N2     O21       5.31706  1_565   S
    Zr20   O22       2.20269      .   S
    N1     O22       5.59552  1_554   S
    Zr20   O23       1.59824      .   S
    N3     O23       3.62016  1_655   S
    Zr20   O24       2.24183      .   S
    N1     O24       5.56184  1_554   S
    Zr20   O25       2.22981      .   S
    N0     O25       5.61917  1_665   S
    Zr20   O26       2.11360      .   S
    N0     O26       5.43400  1_655   S
    Zr20   O27       2.19233      .   S
    N2     O27       5.53857      .   S
    Zr28   O29       2.11360      .   S
    N2     O29       5.43400  1_565   S
    Zr28   O30       1.59824      .   S
    N1     O30       3.62016      .   S
    Zr28   O31       2.05568      .   S
    N0     O31       5.31706  1_556   S
    Zr28   O32       2.19233      .   S
    N0     O32       5.53857  1_566   S
    Zr28   O33       2.24183      .   S
    N3     O33       5.56184      .   S
    Zr28   O34       2.22981      .   S
    N2     O34       5.61917      .   S
    Zr28   O35       2.20269      .   S
    N3     O35       5.59552      .   S
