# CIF file generated by openbabel 2.4.90, see http://openbabel.sf.net
data_I
_chemical_name_common ''
_cell_length_a 14.76
_cell_length_b 14.768
_cell_length_c 14.7681
_cell_angle_alpha 119.862
_cell_angle_beta 119.897
_cell_angle_gamma 90.143
_space_group_name_H-M_alt 'P 1'
_space_group_name_Hall 'P 1'
loop_
    _symmetry_equiv_pos_as_xyz
    x,y,z
loop_
    _atom_site_label
    _atom_site_type_symbol
    _atom_site_fract_x
    _atom_site_fract_y
    _atom_site_fract_z
    _atom_site_occupancy
    N0      N    0.99706   0.03011   0.51538   1.000
    N1      N    0.43928   0.44419   0.48738   1.000
    N2      N    0.01365   0.56171   0.21232   1.000
    N3      N    0.49506   0.02862   0.56086   1.000
    N4      N    0.51958   0.76416   0.87037   1.000
    N5      N    0.44982   0.04207   0.99595   1.000
    N6      N    0.87505   0.06218   0.17278   1.000
    N7      N    0.89292   0.82276   0.85542   1.000
    N8      N    0.32116   0.49145   0.24127   1.000
    N9      N    0.26481   0.50497   0.60316   1.000
    N10     N    0.65316   0.53765   0.77848   1.000
    N11     N    0.87719   0.79349   0.24041   1.000
    N12     N    0.45175   0.87746   0.21900   1.000
    N13     N    0.94596   0.75181   0.18968   1.000
    N14     N    0.45163   0.27511   0.21866   1.000
    N15     N    0.09041   0.18312   0.53844   1.000
    N16     N    0.51260   0.58596   0.45486   1.000
    N17     N    0.75951   0.13489   0.33583   1.000
    N18     N    0.68443   0.71457   0.69201   1.000
    N19     N    0.40920   0.68944   0.94822   1.000
    N20     N    0.03658   0.94126   0.89885   1.000
    N21     N    0.77187   0.27954   0.65741   1.000
    N22     N    0.71361   0.99328   0.98412   1.000
    N23     N    0.11947   0.79384   0.37356   1.000
    N24     N    0.16193   0.90718   0.66643   1.000
    N25     N    0.16885   0.62365   0.40598   1.000
    N26     N    0.60378   0.57067   0.07070   1.000
    Zr27    Zr   0.99732   0.99250   0.97105   1.000
    O28     O    0.97544   0.18476   0.03690   1.000
    O29     O    0.99140   0.17011   0.04851   1.000
    O30     O    0.96739   0.18189   0.04672   1.000
    O31     O    0.95145   0.16062   0.01289   1.000
    O32     O    0.97609   0.18463   0.05988   1.000
    O33     O    0.98768   0.17947   0.04076   1.000
    O34     O    0.96364   0.17720   0.02982   1.000
    O35     O    0.94245   0.03462   0.04304   1.000
    O36     O    0.93641   0.96041   0.93438   1.000
    O37     O    0.87704   0.01834   0.97873   1.000
    O38     O    0.02162   0.17001   0.07800   1.000
    O39     O    0.02563   0.18436   0.10834   1.000
    O40     O    0.04866   0.16041   0.10770   1.000
    O41     O    0.04823   0.18486   0.10787   1.000
    O42     O    0.04303   0.17177   0.10824   1.000
    O43     O    0.97267   0.03452   0.07254   1.000
    O44     O    0.02177   0.02702   0.18373   1.000
    O45     O    0.02101   0.17053   0.04808   1.000
    O46     O    0.15616   0.03162   0.98019   1.000
    O47     O    0.04737   0.18539   0.05858   1.000
    O48     O    0.02427   0.18557   0.03644   1.000
    O49     O    0.05384   0.18767   0.05600   1.000
    O50     O    0.04327   0.18844   0.05409   1.000
    O51     O    0.01730   0.17989   0.04033   1.000
    O52     O    0.02658   0.99080   0.94443   1.000
    O53     O    0.02025   0.02911   0.83814   1.000
    O54     O    0.95124   0.86207   0.21313   1.000
    O55     O    0.97552   0.83977   0.21250   1.000
    O56     O    0.93622   0.93089   0.90401   1.000
    O57     O    0.94656   0.91200   0.89920   1.000
    O58     O    0.86918   0.87724   0.83282   1.000
    O59     O    0.99677   0.96086   0.91449   1.000
    O60     O    0.97125   0.97990   0.78865   1.000
    O61     O    0.03248   0.84726   0.04121   1.000
    O62     O    0.15693   0.98226   0.97956   1.000
    O63     O    0.02548   0.83895   0.03481   1.000
    O64     O    0.02510   0.83932   0.01067   1.000
    O65     O    0.04810   0.86167   0.05764   1.000
    O66     O    0.97678   0.91187   0.92862   1.000
    O67     O    0.03378   0.95424   0.94733   1.000
    O68     O    0.02699   0.96073   0.94391   1.000
    O69     O    0.97692   0.83844   0.03587   1.000
    O70     O    0.94290   0.00463   0.04269   1.000
    O71     O    0.93687   0.93042   0.93402   1.000
    O72     O    0.87040   0.87683   0.88239   1.000
    O73     O    0.87760   0.96896   0.97808   1.000
    O74     O    0.94722   0.91154   0.92921   1.000
    O75     O    0.97280   0.97787   0.13452   1.000
    O76     O    0.00702   0.90033   0.04333   1.000
    O77     O    0.01259   0.97061   0.93968   1.000
    O78     O    0.95204   0.94063   0.92920   1.000
    O79     O    0.00426   0.97298   0.94098   1.000
    O80     O    0.96238   0.92175   0.92439   1.000
    O81     O    0.98794   0.84151   0.20906   1.000
    O82     O    0.00919   0.96260   0.91105   1.000
    O83     O    0.98367   0.98164   0.78521   1.000
    O84     O    0.00286   0.00092   0.80477   1.000
    O85     O    0.98748   0.84119   0.03418   1.000
    O86     O    0.94744   0.93317   0.93233   1.000
    O87     O    0.00799   0.96315   0.94280   1.000
    O88     O    0.95982   0.91475   0.93578   1.000
    O89     O    0.95778   0.91429   0.92751   1.000
    O90     O    0.95347   0.00738   0.04099   1.000
    Zr91    Zr   0.34097   0.26688   0.68070   1.000
    Zr92    Zr   0.52541   0.01969   0.77326   1.000
    O93     O    0.51725   0.03200   0.71322   1.000
    O94     O    0.67300   0.91199   0.88506   1.000
    O95     O    0.59858   0.01970   0.85090   1.000
    Zr96    Zr   0.79343   0.10795   0.30388   1.000
    O97     O    0.77186   0.11853   0.31821   1.000
    O98     O    0.78040   0.10763   0.32113   1.000
    Zr99    Zr   0.68631   0.70796   0.33449   1.000
    O100    O    0.77594   0.82363   0.39815   1.000
    O101    O    0.78708   0.81897   0.39537   1.000
    Zr102   Zr   0.53332   0.04975   0.77040   1.000
    Zr103   Zr   0.37569   0.55238   0.25412   1.000
    Zr104   Zr   0.35366   0.40738   0.16695   1.000
    Zr105   Zr   0.68582   0.36590   0.88525   1.000
    Zr106   Zr   0.47489   0.39974   0.98370   1.000
    Zr107   Zr   0.51021   0.61414   0.04127   1.000
    Zr108   Zr   0.36649   0.63882   0.30006   1.000
    Zr109   Zr   0.36064   0.51435   0.73487   1.000
    Zr110   Zr   0.34309   0.53570   0.95844   1.000
    Zr111   Zr   0.19426   0.13396   0.64376   1.000
    Zr112   Zr   0.52034   0.22184   0.70812   1.000
    Zr113   Zr   0.22576   0.21181   0.92888   1.000
    Zr114   Zr   0.24476   0.38566   0.63649   1.000
    Zr115   Zr   0.90933   0.75059   0.52635   1.000
    Zr116   Zr   0.27597   0.84649   0.24692   1.000
    Zr117   Zr   0.67349   0.52319   0.39247   1.000
    Zr118   Zr   0.56425   0.54648   0.18329   1.000
    Zr119   Zr   0.39353   0.52281   0.79678   1.000
    Zr120   Zr   0.65663   0.40164   0.73561   1.000
    Zr121   Zr   0.78229   0.18646   0.61090   1.000
    Zr122   Zr   0.53866   0.40160   0.62274   1.000
    Zr123   Zr   0.34382   0.40890   0.80312   1.000
    Zr124   Zr   0.60273   0.26813   0.90436   1.000
    Zr125   Zr   0.04568   0.38999   0.78795   1.000
    Zr126   Zr   0.58500   0.59683   0.58709   1.000
    Zr127   Zr   0.67271   0.49806   0.65408   1.000
    Zr128   Zr   0.39876   0.84787   0.38785   1.000
    Zr129   Zr   0.59198   0.34936   0.20495   1.000
    Zr130   Zr   0.41708   0.11588   0.20135   1.000
    Zr131   Zr   0.30013   0.32898   0.95222   1.000
    Zr132   Zr   0.30421   0.64449   0.98977   1.000
    Zr133   Zr   0.38875   0.48644   0.16751   1.000
    Zr134   Zr   0.63242   0.75594   0.07562   1.000
    Zr135   Zr   0.92092   0.37636   0.74276   1.000
    Zr136   Zr   0.89527   0.54553   0.72633   1.000
loop_
    _geom_bond_atom_site_label_1
    _geom_bond_atom_site_label_2
    _geom_bond_distance
    _geom_bond_site_symmetry_2
    _ccdc_geom_bond_type
    Zr27   O28       2.58448  1_566   S
    N2     O28       4.71022  1_455   S
    Zr27   O29       2.30414  1_566   S
    N2     O29       4.96711  1_455   S
    Zr27   O30       2.57931  1_566   S
    N2     O30       4.75034  1_455   S
    Zr27   O31       2.42951  1_566   S
    N2     O31       4.95051  1_455   S
    Zr27   O32       2.56470  1_566   S
    N2     O32       4.75844  1_455   S
    Zr27   O33       2.45395  1_566   S
    N2     O33       4.81767  1_455   S
    Zr27   O34       2.55340  1_566   S
    N2     O34       4.77596  1_455   S
    Zr27   O35       1.54138  1_566   S
    N6     O35       2.43961      .   S
    Zr27   O36       0.76353      .   S
    N7     O36       1.67061      .   S
    Zr27   O37       1.86326  1_565   S
    N22    O37       2.48554  1_565   S
    Zr27   O38       2.19155  1_666   S
    N2     O38       5.12061      .   S
    Zr27   O39       2.39632  1_666   S
    N2     O39       5.01989      .   S
    Zr27   O40       2.06848  1_666   S
    N2     O40       5.42865      .   S
    Zr27   O41       2.34036  1_666   S
    N2     O41       5.08562      .   S
    Zr27   O42       2.20372  1_666   S
    N2     O42       5.25118      .   S
    Zr27   O43       1.54350  1_566   S
    N6     O43       2.44168      .   S
    Zr27   O44       2.74412  1_666   S
    N0     O44       5.06768  1_655   S
    Zr27   O45       2.22465  1_666   S
    N2     O45       5.05783      .   S
    Zr27   O46       2.33423  1_665   S
    N5     O46       4.22146      .   S
    Zr27   O47       2.38791  1_666   S
    N2     O47       4.98634      .   S
    Zr27   O48       2.46781  1_666   S
    N2     O48       4.86521      .   S
    Zr27   O49       2.43335  1_666   S
    N2     O49       4.98775      .   S
    Zr27   O50       2.44225  1_666   S
    N2     O50       4.92362      .   S
    Zr27   O51       2.38073  1_666   S
    N2     O51       4.91176      .   S
    Zr27   O52       0.70793  1_655   S
    N20    O52       0.78704      .   S
    Zr27   O53       2.44490  1_665   S
    N0     O53       4.61319  1_655   S
    Zr27   O54       5.12151  1_556   S
    N2     O54       4.52791  1_455   S
    Zr27   O55       5.20151  1_556   S
    N2     O55       4.14492  1_455   S
    Zr27   O56       0.91112      .   S
    N7     O56       1.36738      .   S
    Zr27   O57       1.02337      .   S
    N7     O57       1.19066      .   S
    Zr27   O58       1.82107      .   S
    N18    O58       2.62133      .   S
    Zr27   O59       0.72145      .   S
    N20    O59       0.74308  1_455   S
    Zr27   O60       2.43018      .   S
    N0     O60       4.63606  1_545   S
    Zr27   O61       2.76151  1_656   S
    N2     O61       5.96256      .   S
    Zr27   O62       2.30522  1_655   S
    N5     O62       4.27234  1_545   S
    Zr27   O63       2.81822  1_656   S
    N2     O63       5.89970      .   S
    Zr27   O64       2.59068  1_656   S
    N2     O64       6.19357      .   S
    Zr27   O65       2.72798  1_656   S
    N2     O65       6.02693      .   S
    Zr27   O66       0.98393      .   S
    N7     O66       1.29378      .   S
    Zr27   O67       0.85086  1_655   S
    N20    O67       0.66629      .   S
    Zr27   O68       0.74917  1_655   S
    N20    O68       0.67018      .   S
    Zr27   O69       2.93878  1_556   S
    N2     O69       5.74392  1_455   S
    Zr27   O70       1.56708  1_566   S
    N6     O70       2.39012      .   S
    Zr27   O71       0.97255      .   S
    N7     O71       1.30479      .   S
    Zr27   O72       1.85829      .   S
    N18    O72       2.59732      .   S
    Zr27   O73       1.86286      .   S
    N22    O73       2.48660      .   S
    Zr27   O74       1.07825      .   S
    N7     O74       1.11805      .   S
    Zr27   O75       2.71952  1_556   S
    N0     O75       5.10183  1_545   S
    Zr27   O76       2.07568  1_656   S
    N2     O76       6.59025      .   S
    Zr27   O77       0.57024  1_655   S
    N20    O77       0.79394      .   S
    Zr27   O78       0.72774      .   S
    N7     O78       1.46101      .   S
    Zr27   O79       0.45686  1_655   S
    N20    O79       0.91711      .   S
    Zr27   O80       0.87095      .   S
    N7     O80       1.30165      .   S
    Zr27   O81       5.06312  1_556   S
    N2     O81       4.17225  1_455   S
    Zr27   O82       0.88101  1_655   S
    N20    O82       0.55863      .   S
    Zr27   O83       2.57079      .   S
    N0     O83       4.47833  1_545   S
    Zr27   O84       2.56055  1_665   S
    N0     O84       4.46411  1_655   S
    Zr27   O85       2.84448  1_556   S
    N2     O85       5.82355  1_455   S
    Zr27   O86       0.84546      .   S
    N7     O86       1.35438      .   S
    Zr27   O87       0.52193  1_655   S
    N20    O87       0.87687      .   S
    Zr27   O88       1.00497      .   S
    N7     O88       1.20351      .   S
    Zr27   O89       0.98544      .   S
    N7     O89       1.19223      .   S
    Zr27   O90       1.40545  1_566   S
    N6     O90       2.54256      .   S
    Zr92   O93       0.94226      .   S
    N3     O93       2.07990      .   S
    Zr92   O94       3.00807  1_545   S
    N2     O94       8.72919  1_454   S
    Zr92   O95       1.11650      .   S
    N22    O95       2.08405  1_565   S
    Zr96   O97       0.45285      .   S
    N17    O97       0.37979      .   S
    Zr96   O98       0.38983      .   S
    N17    O98       0.53352      .   S
    Zr99   O100      1.64361      .   S
    N0     O100      3.46529  1_545   S
    Zr99   O101      1.70154      .   S
    N0     O101      3.38260  1_545   S
